
---------- Begin Simulation Statistics ----------
final_tick                                85407964000                       # Number of ticks from beginning of simulation (restored from checkpoints and never reset)
host_inst_rate                                 249693                       # Simulator instruction rate (inst/s)
host_mem_usage                                 669912                       # Number of bytes of host memory used
host_op_rate                                   250183                       # Simulator op (including micro ops) rate (op/s)
host_seconds                                   400.49                       # Real time elapsed on the host
host_tick_rate                              213257230                       # Simulator tick rate (ticks/s)
sim_freq                                 1000000000000                       # Frequency of simulated ticks
sim_insts                                   100000000                       # Number of instructions simulated
sim_ops                                     100196363                       # Number of ops (including micro ops) simulated
sim_seconds                                  0.085408                       # Number of seconds simulated
sim_ticks                                 85407964000                       # Number of ticks simulated
system.cpu.committedInsts                   100000000                       # Number of instructions committed
system.cpu.committedOps                     100196363                       # Number of ops (including micro ops) committed
system.cpu.cpi                               1.708159                       # CPI: cycles per instruction
system.cpu.discardedOps                        191312                       # Number of ops (including micro ops) which were discarded before commit
system.cpu.idleCycles                        37862270                       # Total number of cycles that the object has spent stopped
system.cpu.ipc                               0.585425                       # IPC: instructions per cycle
system.cpu.numCycles                        170815928                       # number of cpu cycles simulated
system.cpu.numFetchSuspends                         0                       # Number of times Execute suspended instruction fetching
system.cpu.numWorkItemsCompleted                    0                       # number of work items this cpu completed
system.cpu.numWorkItemsStarted                      0                       # number of work items this cpu started
system.cpu.op_class_0::No_OpClass                   0      0.00%      0.00% # Class of committed instruction
system.cpu.op_class_0::IntAlu                46526151     46.43%     46.43% # Class of committed instruction
system.cpu.op_class_0::IntMult                  20720      0.02%     46.46% # Class of committed instruction
system.cpu.op_class_0::IntDiv                       0      0.00%     46.46% # Class of committed instruction
system.cpu.op_class_0::FloatAdd                     0      0.00%     46.46% # Class of committed instruction
system.cpu.op_class_0::FloatCmp                     0      0.00%     46.46% # Class of committed instruction
system.cpu.op_class_0::FloatCvt                     0      0.00%     46.46% # Class of committed instruction
system.cpu.op_class_0::FloatMult                    0      0.00%     46.46% # Class of committed instruction
system.cpu.op_class_0::FloatMultAcc                 0      0.00%     46.46% # Class of committed instruction
system.cpu.op_class_0::FloatDiv                     0      0.00%     46.46% # Class of committed instruction
system.cpu.op_class_0::FloatMisc                    0      0.00%     46.46% # Class of committed instruction
system.cpu.op_class_0::FloatSqrt                    0      0.00%     46.46% # Class of committed instruction
system.cpu.op_class_0::SimdAdd                      0      0.00%     46.46% # Class of committed instruction
system.cpu.op_class_0::SimdAddAcc                   0      0.00%     46.46% # Class of committed instruction
system.cpu.op_class_0::SimdAlu                      0      0.00%     46.46% # Class of committed instruction
system.cpu.op_class_0::SimdCmp                      0      0.00%     46.46% # Class of committed instruction
system.cpu.op_class_0::SimdCvt                      0      0.00%     46.46% # Class of committed instruction
system.cpu.op_class_0::SimdMisc                     0      0.00%     46.46% # Class of committed instruction
system.cpu.op_class_0::SimdMult                     0      0.00%     46.46% # Class of committed instruction
system.cpu.op_class_0::SimdMultAcc                  0      0.00%     46.46% # Class of committed instruction
system.cpu.op_class_0::SimdShift                    0      0.00%     46.46% # Class of committed instruction
system.cpu.op_class_0::SimdShiftAcc                 0      0.00%     46.46% # Class of committed instruction
system.cpu.op_class_0::SimdDiv                      0      0.00%     46.46% # Class of committed instruction
system.cpu.op_class_0::SimdSqrt                     0      0.00%     46.46% # Class of committed instruction
system.cpu.op_class_0::SimdFloatAdd                 0      0.00%     46.46% # Class of committed instruction
system.cpu.op_class_0::SimdFloatAlu                 0      0.00%     46.46% # Class of committed instruction
system.cpu.op_class_0::SimdFloatCmp                 0      0.00%     46.46% # Class of committed instruction
system.cpu.op_class_0::SimdFloatCvt                 0      0.00%     46.46% # Class of committed instruction
system.cpu.op_class_0::SimdFloatDiv                 0      0.00%     46.46% # Class of committed instruction
system.cpu.op_class_0::SimdFloatMisc               18      0.00%     46.46% # Class of committed instruction
system.cpu.op_class_0::SimdFloatMult                0      0.00%     46.46% # Class of committed instruction
system.cpu.op_class_0::SimdFloatMultAcc             0      0.00%     46.46% # Class of committed instruction
system.cpu.op_class_0::SimdFloatSqrt                0      0.00%     46.46% # Class of committed instruction
system.cpu.op_class_0::SimdReduceAdd                0      0.00%     46.46% # Class of committed instruction
system.cpu.op_class_0::SimdReduceAlu                0      0.00%     46.46% # Class of committed instruction
system.cpu.op_class_0::SimdReduceCmp                0      0.00%     46.46% # Class of committed instruction
system.cpu.op_class_0::SimdFloatReduceAdd            0      0.00%     46.46% # Class of committed instruction
system.cpu.op_class_0::SimdFloatReduceCmp            0      0.00%     46.46% # Class of committed instruction
system.cpu.op_class_0::SimdAes                      0      0.00%     46.46% # Class of committed instruction
system.cpu.op_class_0::SimdAesMix                   0      0.00%     46.46% # Class of committed instruction
system.cpu.op_class_0::SimdSha1Hash                 0      0.00%     46.46% # Class of committed instruction
system.cpu.op_class_0::SimdSha1Hash2                0      0.00%     46.46% # Class of committed instruction
system.cpu.op_class_0::SimdSha256Hash               0      0.00%     46.46% # Class of committed instruction
system.cpu.op_class_0::SimdSha256Hash2              0      0.00%     46.46% # Class of committed instruction
system.cpu.op_class_0::SimdShaSigma2                0      0.00%     46.46% # Class of committed instruction
system.cpu.op_class_0::SimdShaSigma3                0      0.00%     46.46% # Class of committed instruction
system.cpu.op_class_0::SimdPredAlu                  0      0.00%     46.46% # Class of committed instruction
system.cpu.op_class_0::MemRead               42691081     42.61%     89.06% # Class of committed instruction
system.cpu.op_class_0::MemWrite              10958393     10.94%    100.00% # Class of committed instruction
system.cpu.op_class_0::FloatMemRead                 0      0.00%    100.00% # Class of committed instruction
system.cpu.op_class_0::FloatMemWrite                0      0.00%    100.00% # Class of committed instruction
system.cpu.op_class_0::IprAccess                    0      0.00%    100.00% # Class of committed instruction
system.cpu.op_class_0::InstPrefetch                 0      0.00%    100.00% # Class of committed instruction
system.cpu.op_class_0::total                100196363                       # Class of committed instruction
system.cpu.tickCycles                       132953658                       # Number of cycles that the object actually ticked
system.cpu.workload.numSyscalls                    84                       # Number of system calls
system.membus.snoop_filter.hit_multi_requests            0                       # Number of requests hitting in the snoop filter with multiple (>1) holders of the requested data.
system.membus.snoop_filter.hit_multi_snoops            0                       # Number of snoops hitting in the snoop filter with multiple (>1) holders of the requested data.
system.membus.snoop_filter.hit_single_requests       168736                       # Number of requests hitting in the snoop filter with a single holder of the requested data.
system.membus.snoop_filter.hit_single_snoops            0                       # Number of snoops hitting in the snoop filter with a single holder of the requested data.
system.membus.snoop_filter.tot_requests        370570                       # Total number of requests made to the snoop filter.
system.membus.snoop_filter.tot_snoops               0                       # Total number of snoops made to the snoop filter.
system.tol2bus.snoop_filter.hit_multi_requests          200                       # Number of requests hitting in the snoop filter with multiple (>1) holders of the requested data.
system.tol2bus.snoop_filter.hit_multi_snoops            0                       # Number of snoops hitting in the snoop filter with multiple (>1) holders of the requested data.
system.tol2bus.snoop_filter.hit_single_requests       874694                       # Number of requests hitting in the snoop filter with a single holder of the requested data.
system.tol2bus.snoop_filter.hit_single_snoops          466                       # Number of snoops hitting in the snoop filter with a single holder of the requested data.
system.tol2bus.snoop_filter.tot_requests      1750341                       # Total number of requests made to the snoop filter.
system.tol2bus.snoop_filter.tot_snoops            466                       # Total number of snoops made to the snoop filter.
system.clk_domain.clock                          1000                       # Clock period in ticks
system.cpu.branchPred.lookups                 4485398                       # Number of BP lookups
system.cpu.branchPred.condPredicted           3734879                       # Number of conditional branches predicted
system.cpu.branchPred.condIncorrect             80996                       # Number of conditional branches incorrect
system.cpu.branchPred.BTBLookups              2103933                       # Number of BTB lookups
system.cpu.branchPred.BTBHits                 2101894                       # Number of BTB hits
system.cpu.branchPred.BTBHitPct             99.903086                       # BTB Hit Percentage
system.cpu.branchPred.RASUsed                   65384                       # Number of times the RAS was used to get a target.
system.cpu.branchPred.RASIncorrect                 14                       # Number of incorrect RAS predictions.
system.cpu.branchPred.indirectLookups             690                       # Number of indirect predictor lookups.
system.cpu.branchPred.indirectHits                289                       # Number of indirect target hits.
system.cpu.branchPred.indirectMisses              401                       # Number of indirect misses.
system.cpu.branchPred.indirectMispredicted          169                       # Number of mispredicted indirect branches.
system.cpu.dcache.demand_hits::.cpu.data     51141231                       # number of demand (read+write) hits
system.cpu.dcache.demand_hits::total         51141231                       # number of demand (read+write) hits
system.cpu.dcache.overall_hits::.cpu.data     51141702                       # number of overall hits
system.cpu.dcache.overall_hits::total        51141702                       # number of overall hits
system.cpu.dcache.demand_misses::.cpu.data       926364                       # number of demand (read+write) misses
system.cpu.dcache.demand_misses::total         926364                       # number of demand (read+write) misses
system.cpu.dcache.overall_misses::.cpu.data       934308                       # number of overall misses
system.cpu.dcache.overall_misses::total        934308                       # number of overall misses
system.cpu.dcache.demand_miss_latency::.cpu.data  27135514000                       # number of demand (read+write) miss cycles
system.cpu.dcache.demand_miss_latency::total  27135514000                       # number of demand (read+write) miss cycles
system.cpu.dcache.overall_miss_latency::.cpu.data  27135514000                       # number of overall miss cycles
system.cpu.dcache.overall_miss_latency::total  27135514000                       # number of overall miss cycles
system.cpu.dcache.demand_accesses::.cpu.data     52067595                       # number of demand (read+write) accesses
system.cpu.dcache.demand_accesses::total     52067595                       # number of demand (read+write) accesses
system.cpu.dcache.overall_accesses::.cpu.data     52076010                       # number of overall (read+write) accesses
system.cpu.dcache.overall_accesses::total     52076010                       # number of overall (read+write) accesses
system.cpu.dcache.demand_miss_rate::.cpu.data     0.017792                       # miss rate for demand accesses
system.cpu.dcache.demand_miss_rate::total     0.017792                       # miss rate for demand accesses
system.cpu.dcache.overall_miss_rate::.cpu.data     0.017941                       # miss rate for overall accesses
system.cpu.dcache.overall_miss_rate::total     0.017941                       # miss rate for overall accesses
system.cpu.dcache.demand_avg_miss_latency::.cpu.data 29292.496254                       # average overall miss latency
system.cpu.dcache.demand_avg_miss_latency::total 29292.496254                       # average overall miss latency
system.cpu.dcache.overall_avg_miss_latency::.cpu.data 29043.435355                       # average overall miss latency
system.cpu.dcache.overall_avg_miss_latency::total 29043.435355                       # average overall miss latency
system.cpu.dcache.blocked_cycles::no_mshrs       220011                       # number of cycles access was blocked
system.cpu.dcache.blocked_cycles::no_targets            0                       # number of cycles access was blocked
system.cpu.dcache.blocked::no_mshrs              3804                       # number of cycles access was blocked
system.cpu.dcache.blocked::no_targets               0                       # number of cycles access was blocked
system.cpu.dcache.avg_blocked_cycles::no_mshrs    57.836751                       # average number of cycles each access was blocked
system.cpu.dcache.avg_blocked_cycles::no_targets          nan                       # average number of cycles each access was blocked
system.cpu.dcache.writebacks::.writebacks       795879                       # number of writebacks
system.cpu.dcache.writebacks::total            795879                       # number of writebacks
system.cpu.dcache.demand_mshr_hits::.cpu.data        59405                       # number of demand (read+write) MSHR hits
system.cpu.dcache.demand_mshr_hits::total        59405                       # number of demand (read+write) MSHR hits
system.cpu.dcache.overall_mshr_hits::.cpu.data        59405                       # number of overall MSHR hits
system.cpu.dcache.overall_mshr_hits::total        59405                       # number of overall MSHR hits
system.cpu.dcache.demand_mshr_misses::.cpu.data       866959                       # number of demand (read+write) MSHR misses
system.cpu.dcache.demand_mshr_misses::total       866959                       # number of demand (read+write) MSHR misses
system.cpu.dcache.overall_mshr_misses::.cpu.data       874898                       # number of overall MSHR misses
system.cpu.dcache.overall_mshr_misses::total       874898                       # number of overall MSHR misses
system.cpu.dcache.demand_mshr_miss_latency::.cpu.data  24695012500                       # number of demand (read+write) MSHR miss cycles
system.cpu.dcache.demand_mshr_miss_latency::total  24695012500                       # number of demand (read+write) MSHR miss cycles
system.cpu.dcache.overall_mshr_miss_latency::.cpu.data  25391041999                       # number of overall MSHR miss cycles
system.cpu.dcache.overall_mshr_miss_latency::total  25391041999                       # number of overall MSHR miss cycles
system.cpu.dcache.demand_mshr_miss_rate::.cpu.data     0.016651                       # mshr miss rate for demand accesses
system.cpu.dcache.demand_mshr_miss_rate::total     0.016651                       # mshr miss rate for demand accesses
system.cpu.dcache.overall_mshr_miss_rate::.cpu.data     0.016800                       # mshr miss rate for overall accesses
system.cpu.dcache.overall_mshr_miss_rate::total     0.016800                       # mshr miss rate for overall accesses
system.cpu.dcache.demand_avg_mshr_miss_latency::.cpu.data 28484.637105                       # average overall mshr miss latency
system.cpu.dcache.demand_avg_mshr_miss_latency::total 28484.637105                       # average overall mshr miss latency
system.cpu.dcache.overall_avg_mshr_miss_latency::.cpu.data 29021.716816                       # average overall mshr miss latency
system.cpu.dcache.overall_avg_mshr_miss_latency::total 29021.716816                       # average overall mshr miss latency
system.cpu.dcache.replacements                 874386                       # number of replacements
system.cpu.dcache.ReadReq_hits::.cpu.data     40591964                       # number of ReadReq hits
system.cpu.dcache.ReadReq_hits::total        40591964                       # number of ReadReq hits
system.cpu.dcache.ReadReq_misses::.cpu.data       526370                       # number of ReadReq misses
system.cpu.dcache.ReadReq_misses::total        526370                       # number of ReadReq misses
system.cpu.dcache.ReadReq_miss_latency::.cpu.data  10791686500                       # number of ReadReq miss cycles
system.cpu.dcache.ReadReq_miss_latency::total  10791686500                       # number of ReadReq miss cycles
system.cpu.dcache.ReadReq_accesses::.cpu.data     41118334                       # number of ReadReq accesses(hits+misses)
system.cpu.dcache.ReadReq_accesses::total     41118334                       # number of ReadReq accesses(hits+misses)
system.cpu.dcache.ReadReq_miss_rate::.cpu.data     0.012801                       # miss rate for ReadReq accesses
system.cpu.dcache.ReadReq_miss_rate::total     0.012801                       # miss rate for ReadReq accesses
system.cpu.dcache.ReadReq_avg_miss_latency::.cpu.data 20502.092634                       # average ReadReq miss latency
system.cpu.dcache.ReadReq_avg_miss_latency::total 20502.092634                       # average ReadReq miss latency
system.cpu.dcache.ReadReq_mshr_hits::.cpu.data          557                       # number of ReadReq MSHR hits
system.cpu.dcache.ReadReq_mshr_hits::total          557                       # number of ReadReq MSHR hits
system.cpu.dcache.ReadReq_mshr_misses::.cpu.data       525813                       # number of ReadReq MSHR misses
system.cpu.dcache.ReadReq_mshr_misses::total       525813                       # number of ReadReq MSHR misses
system.cpu.dcache.ReadReq_mshr_miss_latency::.cpu.data  10245204500                       # number of ReadReq MSHR miss cycles
system.cpu.dcache.ReadReq_mshr_miss_latency::total  10245204500                       # number of ReadReq MSHR miss cycles
system.cpu.dcache.ReadReq_mshr_miss_rate::.cpu.data     0.012788                       # mshr miss rate for ReadReq accesses
system.cpu.dcache.ReadReq_mshr_miss_rate::total     0.012788                       # mshr miss rate for ReadReq accesses
system.cpu.dcache.ReadReq_avg_mshr_miss_latency::.cpu.data 19484.502095                       # average ReadReq mshr miss latency
system.cpu.dcache.ReadReq_avg_mshr_miss_latency::total 19484.502095                       # average ReadReq mshr miss latency
system.cpu.dcache.WriteReq_hits::.cpu.data     10549267                       # number of WriteReq hits
system.cpu.dcache.WriteReq_hits::total       10549267                       # number of WriteReq hits
system.cpu.dcache.WriteReq_misses::.cpu.data       399994                       # number of WriteReq misses
system.cpu.dcache.WriteReq_misses::total       399994                       # number of WriteReq misses
system.cpu.dcache.WriteReq_miss_latency::.cpu.data  16343827500                       # number of WriteReq miss cycles
system.cpu.dcache.WriteReq_miss_latency::total  16343827500                       # number of WriteReq miss cycles
system.cpu.dcache.WriteReq_accesses::.cpu.data     10949261                       # number of WriteReq accesses(hits+misses)
system.cpu.dcache.WriteReq_accesses::total     10949261                       # number of WriteReq accesses(hits+misses)
system.cpu.dcache.WriteReq_miss_rate::.cpu.data     0.036532                       # miss rate for WriteReq accesses
system.cpu.dcache.WriteReq_miss_rate::total     0.036532                       # miss rate for WriteReq accesses
system.cpu.dcache.WriteReq_avg_miss_latency::.cpu.data 40860.181653                       # average WriteReq miss latency
system.cpu.dcache.WriteReq_avg_miss_latency::total 40860.181653                       # average WriteReq miss latency
system.cpu.dcache.WriteReq_mshr_hits::.cpu.data        58848                       # number of WriteReq MSHR hits
system.cpu.dcache.WriteReq_mshr_hits::total        58848                       # number of WriteReq MSHR hits
system.cpu.dcache.WriteReq_mshr_misses::.cpu.data       341146                       # number of WriteReq MSHR misses
system.cpu.dcache.WriteReq_mshr_misses::total       341146                       # number of WriteReq MSHR misses
system.cpu.dcache.WriteReq_mshr_miss_latency::.cpu.data  14449808000                       # number of WriteReq MSHR miss cycles
system.cpu.dcache.WriteReq_mshr_miss_latency::total  14449808000                       # number of WriteReq MSHR miss cycles
system.cpu.dcache.WriteReq_mshr_miss_rate::.cpu.data     0.031157                       # mshr miss rate for WriteReq accesses
system.cpu.dcache.WriteReq_mshr_miss_rate::total     0.031157                       # mshr miss rate for WriteReq accesses
system.cpu.dcache.WriteReq_avg_mshr_miss_latency::.cpu.data 42356.668406                       # average WriteReq mshr miss latency
system.cpu.dcache.WriteReq_avg_mshr_miss_latency::total 42356.668406                       # average WriteReq mshr miss latency
system.cpu.dcache.SoftPFReq_hits::.cpu.data          471                       # number of SoftPFReq hits
system.cpu.dcache.SoftPFReq_hits::total           471                       # number of SoftPFReq hits
system.cpu.dcache.SoftPFReq_misses::.cpu.data         7944                       # number of SoftPFReq misses
system.cpu.dcache.SoftPFReq_misses::total         7944                       # number of SoftPFReq misses
system.cpu.dcache.SoftPFReq_accesses::.cpu.data         8415                       # number of SoftPFReq accesses(hits+misses)
system.cpu.dcache.SoftPFReq_accesses::total         8415                       # number of SoftPFReq accesses(hits+misses)
system.cpu.dcache.SoftPFReq_miss_rate::.cpu.data     0.944029                       # miss rate for SoftPFReq accesses
system.cpu.dcache.SoftPFReq_miss_rate::total     0.944029                       # miss rate for SoftPFReq accesses
system.cpu.dcache.SoftPFReq_mshr_misses::.cpu.data         7939                       # number of SoftPFReq MSHR misses
system.cpu.dcache.SoftPFReq_mshr_misses::total         7939                       # number of SoftPFReq MSHR misses
system.cpu.dcache.SoftPFReq_mshr_miss_latency::.cpu.data    696029499                       # number of SoftPFReq MSHR miss cycles
system.cpu.dcache.SoftPFReq_mshr_miss_latency::total    696029499                       # number of SoftPFReq MSHR miss cycles
system.cpu.dcache.SoftPFReq_mshr_miss_rate::.cpu.data     0.943434                       # mshr miss rate for SoftPFReq accesses
system.cpu.dcache.SoftPFReq_mshr_miss_rate::total     0.943434                       # mshr miss rate for SoftPFReq accesses
system.cpu.dcache.SoftPFReq_avg_mshr_miss_latency::.cpu.data 87672.187807                       # average SoftPFReq mshr miss latency
system.cpu.dcache.SoftPFReq_avg_mshr_miss_latency::total 87672.187807                       # average SoftPFReq mshr miss latency
system.cpu.dcache.LoadLockedReq_hits::.cpu.data           38                       # number of LoadLockedReq hits
system.cpu.dcache.LoadLockedReq_hits::total           38                       # number of LoadLockedReq hits
system.cpu.dcache.LoadLockedReq_accesses::.cpu.data           38                       # number of LoadLockedReq accesses(hits+misses)
system.cpu.dcache.LoadLockedReq_accesses::total           38                       # number of LoadLockedReq accesses(hits+misses)
system.cpu.dcache.StoreCondReq_hits::.cpu.data           38                       # number of StoreCondReq hits
system.cpu.dcache.StoreCondReq_hits::total           38                       # number of StoreCondReq hits
system.cpu.dcache.StoreCondReq_accesses::.cpu.data           38                       # number of StoreCondReq accesses(hits+misses)
system.cpu.dcache.StoreCondReq_accesses::total           38                       # number of StoreCondReq accesses(hits+misses)
system.cpu.dcache.power_state.pwrStateResidencyTicks::UNDEFINED  85407964000                       # Cumulative time (in ticks) in various power states
system.cpu.dcache.tags.tagsinuse           505.549201                       # Cycle average of tags in use
system.cpu.dcache.tags.total_refs            52016676                       # Total number of references to valid blocks.
system.cpu.dcache.tags.sampled_refs            874898                       # Sample count of references to valid blocks.
system.cpu.dcache.tags.avg_refs             59.454560                       # Average number of references to valid blocks.
system.cpu.dcache.tags.warmup_cycle            176500                       # Cycle when the warmup percentage was hit.
system.cpu.dcache.tags.occ_blocks::.cpu.data   505.549201                       # Average occupied blocks per requestor
system.cpu.dcache.tags.occ_percent::.cpu.data     0.987401                       # Average percentage of cache occupancy
system.cpu.dcache.tags.occ_percent::total     0.987401                       # Average percentage of cache occupancy
system.cpu.dcache.tags.occ_task_id_blocks::1024          512                       # Occupied blocks per task id
system.cpu.dcache.tags.age_task_id_blocks_1024::0           77                       # Occupied blocks per task id
system.cpu.dcache.tags.age_task_id_blocks_1024::1          352                       # Occupied blocks per task id
system.cpu.dcache.tags.age_task_id_blocks_1024::2           82                       # Occupied blocks per task id
system.cpu.dcache.tags.age_task_id_blocks_1024::3            1                       # Occupied blocks per task id
system.cpu.dcache.tags.occ_task_id_percent::1024            1                       # Percentage of cache occupancy per task id
system.cpu.dcache.tags.tag_accesses         105027070                       # Number of tag accesses
system.cpu.dcache.tags.data_accesses        105027070                       # Number of data accesses
system.cpu.dcache.tags.power_state.pwrStateResidencyTicks::UNDEFINED  85407964000                       # Cumulative time (in ticks) in various power states
system.cpu.dtb.instHits                             0                       # ITB inst hits
system.cpu.dtb.instMisses                           0                       # ITB inst misses
system.cpu.dtb.readHits                             0                       # DTB read hits
system.cpu.dtb.readMisses                           0                       # DTB read misses
system.cpu.dtb.writeHits                            0                       # DTB write hits
system.cpu.dtb.writeMisses                          0                       # DTB write misses
system.cpu.dtb.inserts                              0                       # Number of times an entry is inserted into the TLB
system.cpu.dtb.flushTlb                             0                       # Number of times complete TLB was flushed
system.cpu.dtb.flushTlbMva                          0                       # Number of times TLB was flushed by MVA
system.cpu.dtb.flushTlbMvaAsid                      0                       # Number of times TLB was flushed by MVA & ASID
system.cpu.dtb.flushTlbAsid                         0                       # Number of times TLB was flushed by ASID
system.cpu.dtb.flushedEntries                       0                       # Number of entries that have been flushed from TLB
system.cpu.dtb.alignFaults                          0                       # Number of TLB faults due to alignment restrictions
system.cpu.dtb.prefetchFaults                       0                       # Number of TLB faults due to prefetch
system.cpu.dtb.domainFaults                         0                       # Number of TLB faults due to domain restrictions
system.cpu.dtb.permsFaults                          0                       # Number of TLB faults due to permissions restrictions
system.cpu.dtb.readAccesses                         0                       # DTB read accesses
system.cpu.dtb.writeAccesses                        0                       # DTB write accesses
system.cpu.dtb.instAccesses                         0                       # ITB inst accesses
system.cpu.dtb.hits                                 0                       # Total TLB (inst and data) hits
system.cpu.dtb.misses                               0                       # Total TLB (inst and data) misses
system.cpu.dtb.accesses                             0                       # Total TLB (inst and data) accesses
system.cpu.dtb.stage2_mmu.stage2_tlb.instHits            0                       # ITB inst hits
system.cpu.dtb.stage2_mmu.stage2_tlb.instMisses            0                       # ITB inst misses
system.cpu.dtb.stage2_mmu.stage2_tlb.readHits            0                       # DTB read hits
system.cpu.dtb.stage2_mmu.stage2_tlb.readMisses            0                       # DTB read misses
system.cpu.dtb.stage2_mmu.stage2_tlb.writeHits            0                       # DTB write hits
system.cpu.dtb.stage2_mmu.stage2_tlb.writeMisses            0                       # DTB write misses
system.cpu.dtb.stage2_mmu.stage2_tlb.inserts            0                       # Number of times an entry is inserted into the TLB
system.cpu.dtb.stage2_mmu.stage2_tlb.flushTlb            0                       # Number of times complete TLB was flushed
system.cpu.dtb.stage2_mmu.stage2_tlb.flushTlbMva            0                       # Number of times TLB was flushed by MVA
system.cpu.dtb.stage2_mmu.stage2_tlb.flushTlbMvaAsid            0                       # Number of times TLB was flushed by MVA & ASID
system.cpu.dtb.stage2_mmu.stage2_tlb.flushTlbAsid            0                       # Number of times TLB was flushed by ASID
system.cpu.dtb.stage2_mmu.stage2_tlb.flushedEntries            0                       # Number of entries that have been flushed from TLB
system.cpu.dtb.stage2_mmu.stage2_tlb.alignFaults            0                       # Number of TLB faults due to alignment restrictions
system.cpu.dtb.stage2_mmu.stage2_tlb.prefetchFaults            0                       # Number of TLB faults due to prefetch
system.cpu.dtb.stage2_mmu.stage2_tlb.domainFaults            0                       # Number of TLB faults due to domain restrictions
system.cpu.dtb.stage2_mmu.stage2_tlb.permsFaults            0                       # Number of TLB faults due to permissions restrictions
system.cpu.dtb.stage2_mmu.stage2_tlb.readAccesses            0                       # DTB read accesses
system.cpu.dtb.stage2_mmu.stage2_tlb.writeAccesses            0                       # DTB write accesses
system.cpu.dtb.stage2_mmu.stage2_tlb.instAccesses            0                       # ITB inst accesses
system.cpu.dtb.stage2_mmu.stage2_tlb.hits            0                       # Total TLB (inst and data) hits
system.cpu.dtb.stage2_mmu.stage2_tlb.misses            0                       # Total TLB (inst and data) misses
system.cpu.dtb.stage2_mmu.stage2_tlb.accesses            0                       # Total TLB (inst and data) accesses
system.cpu.dtb.stage2_mmu.stage2_tlb.walker.walks            0                       # Table walker walks requested
system.cpu.dtb.stage2_mmu.stage2_tlb.walker.requestOrigin_Requested::Data            0                       # Table walker requests started/completed, data/inst
system.cpu.dtb.stage2_mmu.stage2_tlb.walker.requestOrigin_Requested::Inst            0                       # Table walker requests started/completed, data/inst
system.cpu.dtb.stage2_mmu.stage2_tlb.walker.requestOrigin_Requested::total            0                       # Table walker requests started/completed, data/inst
system.cpu.dtb.stage2_mmu.stage2_tlb.walker.requestOrigin_Completed::Data            0                       # Table walker requests started/completed, data/inst
system.cpu.dtb.stage2_mmu.stage2_tlb.walker.requestOrigin_Completed::Inst            0                       # Table walker requests started/completed, data/inst
system.cpu.dtb.stage2_mmu.stage2_tlb.walker.requestOrigin_Completed::total            0                       # Table walker requests started/completed, data/inst
system.cpu.dtb.stage2_mmu.stage2_tlb.walker.requestOrigin::total            0                       # Table walker requests started/completed, data/inst
system.cpu.dtb.stage2_mmu.stage2_tlb.walker.power_state.pwrStateResidencyTicks::UNDEFINED  85407964000                       # Cumulative time (in ticks) in various power states
system.cpu.dtb.walker.walks                         0                       # Table walker walks requested
system.cpu.dtb.walker.requestOrigin_Requested::Data            0                       # Table walker requests started/completed, data/inst
system.cpu.dtb.walker.requestOrigin_Requested::Inst            0                       # Table walker requests started/completed, data/inst
system.cpu.dtb.walker.requestOrigin_Requested::total            0                       # Table walker requests started/completed, data/inst
system.cpu.dtb.walker.requestOrigin_Completed::Data            0                       # Table walker requests started/completed, data/inst
system.cpu.dtb.walker.requestOrigin_Completed::Inst            0                       # Table walker requests started/completed, data/inst
system.cpu.dtb.walker.requestOrigin_Completed::total            0                       # Table walker requests started/completed, data/inst
system.cpu.dtb.walker.requestOrigin::total            0                       # Table walker requests started/completed, data/inst
system.cpu.dtb.walker.power_state.pwrStateResidencyTicks::UNDEFINED  85407964000                       # Cumulative time (in ticks) in various power states
system.cpu.fetch2.intInstructions            42684833                       # Number of integer instructions successfully decoded
system.cpu.fetch2.fpInstructions                    0                       # Number of floating point instructions successfully decoded
system.cpu.fetch2.vecInstructions                   0                       # Number of SIMD instructions successfully decoded
system.cpu.fetch2.loadInstructions           43474156                       # Number of memory load instructions successfully decoded
system.cpu.fetch2.storeInstructions          11025806                       # Number of memory store instructions successfully decoded
system.cpu.fetch2.amoInstructions                   0                       # Number of memory atomic instructions successfully decoded
system.cpu.icache.demand_hits::.cpu.inst      9700296                       # number of demand (read+write) hits
system.cpu.icache.demand_hits::total          9700296                       # number of demand (read+write) hits
system.cpu.icache.overall_hits::.cpu.inst      9700296                       # number of overall hits
system.cpu.icache.overall_hits::total         9700296                       # number of overall hits
system.cpu.icache.demand_misses::.cpu.inst          751                       # number of demand (read+write) misses
system.cpu.icache.demand_misses::total            751                       # number of demand (read+write) misses
system.cpu.icache.overall_misses::.cpu.inst          751                       # number of overall misses
system.cpu.icache.overall_misses::total           751                       # number of overall misses
system.cpu.icache.demand_miss_latency::.cpu.inst     54599000                       # number of demand (read+write) miss cycles
system.cpu.icache.demand_miss_latency::total     54599000                       # number of demand (read+write) miss cycles
system.cpu.icache.overall_miss_latency::.cpu.inst     54599000                       # number of overall miss cycles
system.cpu.icache.overall_miss_latency::total     54599000                       # number of overall miss cycles
system.cpu.icache.demand_accesses::.cpu.inst      9701047                       # number of demand (read+write) accesses
system.cpu.icache.demand_accesses::total      9701047                       # number of demand (read+write) accesses
system.cpu.icache.overall_accesses::.cpu.inst      9701047                       # number of overall (read+write) accesses
system.cpu.icache.overall_accesses::total      9701047                       # number of overall (read+write) accesses
system.cpu.icache.demand_miss_rate::.cpu.inst     0.000077                       # miss rate for demand accesses
system.cpu.icache.demand_miss_rate::total     0.000077                       # miss rate for demand accesses
system.cpu.icache.overall_miss_rate::.cpu.inst     0.000077                       # miss rate for overall accesses
system.cpu.icache.overall_miss_rate::total     0.000077                       # miss rate for overall accesses
system.cpu.icache.demand_avg_miss_latency::.cpu.inst 72701.731025                       # average overall miss latency
system.cpu.icache.demand_avg_miss_latency::total 72701.731025                       # average overall miss latency
system.cpu.icache.overall_avg_miss_latency::.cpu.inst 72701.731025                       # average overall miss latency
system.cpu.icache.overall_avg_miss_latency::total 72701.731025                       # average overall miss latency
system.cpu.icache.blocked_cycles::no_mshrs            0                       # number of cycles access was blocked
system.cpu.icache.blocked_cycles::no_targets            0                       # number of cycles access was blocked
system.cpu.icache.blocked::no_mshrs                 0                       # number of cycles access was blocked
system.cpu.icache.blocked::no_targets               0                       # number of cycles access was blocked
system.cpu.icache.avg_blocked_cycles::no_mshrs          nan                       # average number of cycles each access was blocked
system.cpu.icache.avg_blocked_cycles::no_targets          nan                       # average number of cycles each access was blocked
system.cpu.icache.writebacks::.writebacks          306                       # number of writebacks
system.cpu.icache.writebacks::total               306                       # number of writebacks
system.cpu.icache.demand_mshr_misses::.cpu.inst          751                       # number of demand (read+write) MSHR misses
system.cpu.icache.demand_mshr_misses::total          751                       # number of demand (read+write) MSHR misses
system.cpu.icache.overall_mshr_misses::.cpu.inst          751                       # number of overall MSHR misses
system.cpu.icache.overall_mshr_misses::total          751                       # number of overall MSHR misses
system.cpu.icache.demand_mshr_miss_latency::.cpu.inst     53848000                       # number of demand (read+write) MSHR miss cycles
system.cpu.icache.demand_mshr_miss_latency::total     53848000                       # number of demand (read+write) MSHR miss cycles
system.cpu.icache.overall_mshr_miss_latency::.cpu.inst     53848000                       # number of overall MSHR miss cycles
system.cpu.icache.overall_mshr_miss_latency::total     53848000                       # number of overall MSHR miss cycles
system.cpu.icache.demand_mshr_miss_rate::.cpu.inst     0.000077                       # mshr miss rate for demand accesses
system.cpu.icache.demand_mshr_miss_rate::total     0.000077                       # mshr miss rate for demand accesses
system.cpu.icache.overall_mshr_miss_rate::.cpu.inst     0.000077                       # mshr miss rate for overall accesses
system.cpu.icache.overall_mshr_miss_rate::total     0.000077                       # mshr miss rate for overall accesses
system.cpu.icache.demand_avg_mshr_miss_latency::.cpu.inst 71701.731025                       # average overall mshr miss latency
system.cpu.icache.demand_avg_mshr_miss_latency::total 71701.731025                       # average overall mshr miss latency
system.cpu.icache.overall_avg_mshr_miss_latency::.cpu.inst 71701.731025                       # average overall mshr miss latency
system.cpu.icache.overall_avg_mshr_miss_latency::total 71701.731025                       # average overall mshr miss latency
system.cpu.icache.replacements                    306                       # number of replacements
system.cpu.icache.ReadReq_hits::.cpu.inst      9700296                       # number of ReadReq hits
system.cpu.icache.ReadReq_hits::total         9700296                       # number of ReadReq hits
system.cpu.icache.ReadReq_misses::.cpu.inst          751                       # number of ReadReq misses
system.cpu.icache.ReadReq_misses::total           751                       # number of ReadReq misses
system.cpu.icache.ReadReq_miss_latency::.cpu.inst     54599000                       # number of ReadReq miss cycles
system.cpu.icache.ReadReq_miss_latency::total     54599000                       # number of ReadReq miss cycles
system.cpu.icache.ReadReq_accesses::.cpu.inst      9701047                       # number of ReadReq accesses(hits+misses)
system.cpu.icache.ReadReq_accesses::total      9701047                       # number of ReadReq accesses(hits+misses)
system.cpu.icache.ReadReq_miss_rate::.cpu.inst     0.000077                       # miss rate for ReadReq accesses
system.cpu.icache.ReadReq_miss_rate::total     0.000077                       # miss rate for ReadReq accesses
system.cpu.icache.ReadReq_avg_miss_latency::.cpu.inst 72701.731025                       # average ReadReq miss latency
system.cpu.icache.ReadReq_avg_miss_latency::total 72701.731025                       # average ReadReq miss latency
system.cpu.icache.ReadReq_mshr_misses::.cpu.inst          751                       # number of ReadReq MSHR misses
system.cpu.icache.ReadReq_mshr_misses::total          751                       # number of ReadReq MSHR misses
system.cpu.icache.ReadReq_mshr_miss_latency::.cpu.inst     53848000                       # number of ReadReq MSHR miss cycles
system.cpu.icache.ReadReq_mshr_miss_latency::total     53848000                       # number of ReadReq MSHR miss cycles
system.cpu.icache.ReadReq_mshr_miss_rate::.cpu.inst     0.000077                       # mshr miss rate for ReadReq accesses
system.cpu.icache.ReadReq_mshr_miss_rate::total     0.000077                       # mshr miss rate for ReadReq accesses
system.cpu.icache.ReadReq_avg_mshr_miss_latency::.cpu.inst 71701.731025                       # average ReadReq mshr miss latency
system.cpu.icache.ReadReq_avg_mshr_miss_latency::total 71701.731025                       # average ReadReq mshr miss latency
system.cpu.icache.power_state.pwrStateResidencyTicks::UNDEFINED  85407964000                       # Cumulative time (in ticks) in various power states
system.cpu.icache.tags.tagsinuse           361.096733                       # Cycle average of tags in use
system.cpu.icache.tags.total_refs             9701047                       # Total number of references to valid blocks.
system.cpu.icache.tags.sampled_refs               751                       # Sample count of references to valid blocks.
system.cpu.icache.tags.avg_refs          12917.505992                       # Average number of references to valid blocks.
system.cpu.icache.tags.warmup_cycle             87500                       # Cycle when the warmup percentage was hit.
system.cpu.icache.tags.occ_blocks::.cpu.inst   361.096733                       # Average occupied blocks per requestor
system.cpu.icache.tags.occ_percent::.cpu.inst     0.705267                       # Average percentage of cache occupancy
system.cpu.icache.tags.occ_percent::total     0.705267                       # Average percentage of cache occupancy
system.cpu.icache.tags.occ_task_id_blocks::1024          445                       # Occupied blocks per task id
system.cpu.icache.tags.age_task_id_blocks_1024::3          106                       # Occupied blocks per task id
system.cpu.icache.tags.age_task_id_blocks_1024::4          339                       # Occupied blocks per task id
system.cpu.icache.tags.occ_task_id_percent::1024     0.869141                       # Percentage of cache occupancy per task id
system.cpu.icache.tags.tag_accesses          19402845                       # Number of tag accesses
system.cpu.icache.tags.data_accesses         19402845                       # Number of data accesses
system.cpu.icache.tags.power_state.pwrStateResidencyTicks::UNDEFINED  85407964000                       # Cumulative time (in ticks) in various power states
system.cpu.itb.instHits                             0                       # ITB inst hits
system.cpu.itb.instMisses                           0                       # ITB inst misses
system.cpu.itb.readHits                             0                       # DTB read hits
system.cpu.itb.readMisses                           0                       # DTB read misses
system.cpu.itb.writeHits                            0                       # DTB write hits
system.cpu.itb.writeMisses                          0                       # DTB write misses
system.cpu.itb.inserts                              0                       # Number of times an entry is inserted into the TLB
system.cpu.itb.flushTlb                             0                       # Number of times complete TLB was flushed
system.cpu.itb.flushTlbMva                          0                       # Number of times TLB was flushed by MVA
system.cpu.itb.flushTlbMvaAsid                      0                       # Number of times TLB was flushed by MVA & ASID
system.cpu.itb.flushTlbAsid                         0                       # Number of times TLB was flushed by ASID
system.cpu.itb.flushedEntries                       0                       # Number of entries that have been flushed from TLB
system.cpu.itb.alignFaults                          0                       # Number of TLB faults due to alignment restrictions
system.cpu.itb.prefetchFaults                       0                       # Number of TLB faults due to prefetch
system.cpu.itb.domainFaults                         0                       # Number of TLB faults due to domain restrictions
system.cpu.itb.permsFaults                          0                       # Number of TLB faults due to permissions restrictions
system.cpu.itb.readAccesses                         0                       # DTB read accesses
system.cpu.itb.writeAccesses                        0                       # DTB write accesses
system.cpu.itb.instAccesses                         0                       # ITB inst accesses
system.cpu.itb.hits                                 0                       # Total TLB (inst and data) hits
system.cpu.itb.misses                               0                       # Total TLB (inst and data) misses
system.cpu.itb.accesses                             0                       # Total TLB (inst and data) accesses
system.cpu.itb.stage2_mmu.stage2_tlb.instHits            0                       # ITB inst hits
system.cpu.itb.stage2_mmu.stage2_tlb.instMisses            0                       # ITB inst misses
system.cpu.itb.stage2_mmu.stage2_tlb.readHits            0                       # DTB read hits
system.cpu.itb.stage2_mmu.stage2_tlb.readMisses            0                       # DTB read misses
system.cpu.itb.stage2_mmu.stage2_tlb.writeHits            0                       # DTB write hits
system.cpu.itb.stage2_mmu.stage2_tlb.writeMisses            0                       # DTB write misses
system.cpu.itb.stage2_mmu.stage2_tlb.inserts            0                       # Number of times an entry is inserted into the TLB
system.cpu.itb.stage2_mmu.stage2_tlb.flushTlb            0                       # Number of times complete TLB was flushed
system.cpu.itb.stage2_mmu.stage2_tlb.flushTlbMva            0                       # Number of times TLB was flushed by MVA
system.cpu.itb.stage2_mmu.stage2_tlb.flushTlbMvaAsid            0                       # Number of times TLB was flushed by MVA & ASID
system.cpu.itb.stage2_mmu.stage2_tlb.flushTlbAsid            0                       # Number of times TLB was flushed by ASID
system.cpu.itb.stage2_mmu.stage2_tlb.flushedEntries            0                       # Number of entries that have been flushed from TLB
system.cpu.itb.stage2_mmu.stage2_tlb.alignFaults            0                       # Number of TLB faults due to alignment restrictions
system.cpu.itb.stage2_mmu.stage2_tlb.prefetchFaults            0                       # Number of TLB faults due to prefetch
system.cpu.itb.stage2_mmu.stage2_tlb.domainFaults            0                       # Number of TLB faults due to domain restrictions
system.cpu.itb.stage2_mmu.stage2_tlb.permsFaults            0                       # Number of TLB faults due to permissions restrictions
system.cpu.itb.stage2_mmu.stage2_tlb.readAccesses            0                       # DTB read accesses
system.cpu.itb.stage2_mmu.stage2_tlb.writeAccesses            0                       # DTB write accesses
system.cpu.itb.stage2_mmu.stage2_tlb.instAccesses            0                       # ITB inst accesses
system.cpu.itb.stage2_mmu.stage2_tlb.hits            0                       # Total TLB (inst and data) hits
system.cpu.itb.stage2_mmu.stage2_tlb.misses            0                       # Total TLB (inst and data) misses
system.cpu.itb.stage2_mmu.stage2_tlb.accesses            0                       # Total TLB (inst and data) accesses
system.cpu.itb.stage2_mmu.stage2_tlb.walker.walks            0                       # Table walker walks requested
system.cpu.itb.stage2_mmu.stage2_tlb.walker.requestOrigin_Requested::Data            0                       # Table walker requests started/completed, data/inst
system.cpu.itb.stage2_mmu.stage2_tlb.walker.requestOrigin_Requested::Inst            0                       # Table walker requests started/completed, data/inst
system.cpu.itb.stage2_mmu.stage2_tlb.walker.requestOrigin_Requested::total            0                       # Table walker requests started/completed, data/inst
system.cpu.itb.stage2_mmu.stage2_tlb.walker.requestOrigin_Completed::Data            0                       # Table walker requests started/completed, data/inst
system.cpu.itb.stage2_mmu.stage2_tlb.walker.requestOrigin_Completed::Inst            0                       # Table walker requests started/completed, data/inst
system.cpu.itb.stage2_mmu.stage2_tlb.walker.requestOrigin_Completed::total            0                       # Table walker requests started/completed, data/inst
system.cpu.itb.stage2_mmu.stage2_tlb.walker.requestOrigin::total            0                       # Table walker requests started/completed, data/inst
system.cpu.itb.stage2_mmu.stage2_tlb.walker.power_state.pwrStateResidencyTicks::UNDEFINED  85407964000                       # Cumulative time (in ticks) in various power states
system.cpu.itb.walker.walks                         0                       # Table walker walks requested
system.cpu.itb.walker.requestOrigin_Requested::Data            0                       # Table walker requests started/completed, data/inst
system.cpu.itb.walker.requestOrigin_Requested::Inst            0                       # Table walker requests started/completed, data/inst
system.cpu.itb.walker.requestOrigin_Requested::total            0                       # Table walker requests started/completed, data/inst
system.cpu.itb.walker.requestOrigin_Completed::Data            0                       # Table walker requests started/completed, data/inst
system.cpu.itb.walker.requestOrigin_Completed::Inst            0                       # Table walker requests started/completed, data/inst
system.cpu.itb.walker.requestOrigin_Completed::total            0                       # Table walker requests started/completed, data/inst
system.cpu.itb.walker.requestOrigin::total            0                       # Table walker requests started/completed, data/inst
system.cpu.itb.walker.power_state.pwrStateResidencyTicks::UNDEFINED  85407964000                       # Cumulative time (in ticks) in various power states
system.cpu.power_state.pwrStateResidencyTicks::ON  85407964000                       # Cumulative time (in ticks) in various power states
system.cpu.thread_0.numInsts                100000000                       # Number of Instructions committed
system.cpu.thread_0.numOps                  100196363                       # Number of Ops committed
system.cpu.thread_0.numMemRefs                      0                       # Number of Memory References
system.cpu_clk_domain.clock                       500                       # Clock period in ticks
system.cpu_voltage_domain.voltage                   1                       # Voltage in Volts
system.l2.demand_hits::.cpu.inst                   83                       # number of demand (read+write) hits
system.l2.demand_hits::.cpu.data               673721                       # number of demand (read+write) hits
system.l2.demand_hits::total                   673804                       # number of demand (read+write) hits
system.l2.overall_hits::.cpu.inst                  83                       # number of overall hits
system.l2.overall_hits::.cpu.data              673721                       # number of overall hits
system.l2.overall_hits::total                  673804                       # number of overall hits
system.l2.demand_misses::.cpu.inst                668                       # number of demand (read+write) misses
system.l2.demand_misses::.cpu.data             201177                       # number of demand (read+write) misses
system.l2.demand_misses::total                 201845                       # number of demand (read+write) misses
system.l2.overall_misses::.cpu.inst               668                       # number of overall misses
system.l2.overall_misses::.cpu.data            201177                       # number of overall misses
system.l2.overall_misses::total                201845                       # number of overall misses
system.l2.demand_miss_latency::.cpu.inst     51829500                       # number of demand (read+write) miss cycles
system.l2.demand_miss_latency::.cpu.data  16996243000                       # number of demand (read+write) miss cycles
system.l2.demand_miss_latency::total      17048072500                       # number of demand (read+write) miss cycles
system.l2.overall_miss_latency::.cpu.inst     51829500                       # number of overall miss cycles
system.l2.overall_miss_latency::.cpu.data  16996243000                       # number of overall miss cycles
system.l2.overall_miss_latency::total     17048072500                       # number of overall miss cycles
system.l2.demand_accesses::.cpu.inst              751                       # number of demand (read+write) accesses
system.l2.demand_accesses::.cpu.data           874898                       # number of demand (read+write) accesses
system.l2.demand_accesses::total               875649                       # number of demand (read+write) accesses
system.l2.overall_accesses::.cpu.inst             751                       # number of overall (read+write) accesses
system.l2.overall_accesses::.cpu.data          874898                       # number of overall (read+write) accesses
system.l2.overall_accesses::total              875649                       # number of overall (read+write) accesses
system.l2.demand_miss_rate::.cpu.inst        0.889481                       # miss rate for demand accesses
system.l2.demand_miss_rate::.cpu.data        0.229943                       # miss rate for demand accesses
system.l2.demand_miss_rate::total            0.230509                       # miss rate for demand accesses
system.l2.overall_miss_rate::.cpu.inst       0.889481                       # miss rate for overall accesses
system.l2.overall_miss_rate::.cpu.data       0.229943                       # miss rate for overall accesses
system.l2.overall_miss_rate::total           0.230509                       # miss rate for overall accesses
system.l2.demand_avg_miss_latency::.cpu.inst 77589.071856                       # average overall miss latency
system.l2.demand_avg_miss_latency::.cpu.data 84484.026504                       # average overall miss latency
system.l2.demand_avg_miss_latency::total 84461.207858                       # average overall miss latency
system.l2.overall_avg_miss_latency::.cpu.inst 77589.071856                       # average overall miss latency
system.l2.overall_avg_miss_latency::.cpu.data 84484.026504                       # average overall miss latency
system.l2.overall_avg_miss_latency::total 84461.207858                       # average overall miss latency
system.l2.blocked_cycles::no_mshrs                  0                       # number of cycles access was blocked
system.l2.blocked_cycles::no_targets                0                       # number of cycles access was blocked
system.l2.blocked::no_mshrs                         0                       # number of cycles access was blocked
system.l2.blocked::no_targets                       0                       # number of cycles access was blocked
system.l2.avg_blocked_cycles::no_mshrs            nan                       # average number of cycles each access was blocked
system.l2.avg_blocked_cycles::no_targets          nan                       # average number of cycles each access was blocked
system.l2.writebacks::.writebacks              111063                       # number of writebacks
system.l2.writebacks::total                    111063                       # number of writebacks
system.l2.demand_mshr_hits::.cpu.data               4                       # number of demand (read+write) MSHR hits
system.l2.demand_mshr_hits::total                   4                       # number of demand (read+write) MSHR hits
system.l2.overall_mshr_hits::.cpu.data              4                       # number of overall MSHR hits
system.l2.overall_mshr_hits::total                  4                       # number of overall MSHR hits
system.l2.demand_mshr_misses::.cpu.inst           668                       # number of demand (read+write) MSHR misses
system.l2.demand_mshr_misses::.cpu.data        201173                       # number of demand (read+write) MSHR misses
system.l2.demand_mshr_misses::total            201841                       # number of demand (read+write) MSHR misses
system.l2.overall_mshr_misses::.cpu.inst          668                       # number of overall MSHR misses
system.l2.overall_mshr_misses::.cpu.data       201173                       # number of overall MSHR misses
system.l2.overall_mshr_misses::total           201841                       # number of overall MSHR misses
system.l2.demand_mshr_miss_latency::.cpu.inst     45149500                       # number of demand (read+write) MSHR miss cycles
system.l2.demand_mshr_miss_latency::.cpu.data  14984269000                       # number of demand (read+write) MSHR miss cycles
system.l2.demand_mshr_miss_latency::total  15029418500                       # number of demand (read+write) MSHR miss cycles
system.l2.overall_mshr_miss_latency::.cpu.inst     45149500                       # number of overall MSHR miss cycles
system.l2.overall_mshr_miss_latency::.cpu.data  14984269000                       # number of overall MSHR miss cycles
system.l2.overall_mshr_miss_latency::total  15029418500                       # number of overall MSHR miss cycles
system.l2.demand_mshr_miss_rate::.cpu.inst     0.889481                       # mshr miss rate for demand accesses
system.l2.demand_mshr_miss_rate::.cpu.data     0.229939                       # mshr miss rate for demand accesses
system.l2.demand_mshr_miss_rate::total       0.230504                       # mshr miss rate for demand accesses
system.l2.overall_mshr_miss_rate::.cpu.inst     0.889481                       # mshr miss rate for overall accesses
system.l2.overall_mshr_miss_rate::.cpu.data     0.229939                       # mshr miss rate for overall accesses
system.l2.overall_mshr_miss_rate::total      0.230504                       # mshr miss rate for overall accesses
system.l2.demand_avg_mshr_miss_latency::.cpu.inst 67589.071856                       # average overall mshr miss latency
system.l2.demand_avg_mshr_miss_latency::.cpu.data 74484.493446                       # average overall mshr miss latency
system.l2.demand_avg_mshr_miss_latency::total 74461.672802                       # average overall mshr miss latency
system.l2.overall_avg_mshr_miss_latency::.cpu.inst 67589.071856                       # average overall mshr miss latency
system.l2.overall_avg_mshr_miss_latency::.cpu.data 74484.493446                       # average overall mshr miss latency
system.l2.overall_avg_mshr_miss_latency::total 74461.672802                       # average overall mshr miss latency
system.l2.replacements                         169195                       # number of replacements
system.l2.WritebackDirty_hits::.writebacks       795879                       # number of WritebackDirty hits
system.l2.WritebackDirty_hits::total           795879                       # number of WritebackDirty hits
system.l2.WritebackDirty_accesses::.writebacks       795879                       # number of WritebackDirty accesses(hits+misses)
system.l2.WritebackDirty_accesses::total       795879                       # number of WritebackDirty accesses(hits+misses)
system.l2.WritebackClean_hits::.writebacks          297                       # number of WritebackClean hits
system.l2.WritebackClean_hits::total              297                       # number of WritebackClean hits
system.l2.WritebackClean_accesses::.writebacks          297                       # number of WritebackClean accesses(hits+misses)
system.l2.WritebackClean_accesses::total          297                       # number of WritebackClean accesses(hits+misses)
system.l2.ReadExReq_hits::.cpu.data            205045                       # number of ReadExReq hits
system.l2.ReadExReq_hits::total                205045                       # number of ReadExReq hits
system.l2.ReadExReq_misses::.cpu.data          136101                       # number of ReadExReq misses
system.l2.ReadExReq_misses::total              136101                       # number of ReadExReq misses
system.l2.ReadExReq_miss_latency::.cpu.data  11782608500                       # number of ReadExReq miss cycles
system.l2.ReadExReq_miss_latency::total   11782608500                       # number of ReadExReq miss cycles
system.l2.ReadExReq_accesses::.cpu.data        341146                       # number of ReadExReq accesses(hits+misses)
system.l2.ReadExReq_accesses::total            341146                       # number of ReadExReq accesses(hits+misses)
system.l2.ReadExReq_miss_rate::.cpu.data     0.398952                       # miss rate for ReadExReq accesses
system.l2.ReadExReq_miss_rate::total         0.398952                       # miss rate for ReadExReq accesses
system.l2.ReadExReq_avg_miss_latency::.cpu.data 86572.534368                       # average ReadExReq miss latency
system.l2.ReadExReq_avg_miss_latency::total 86572.534368                       # average ReadExReq miss latency
system.l2.ReadExReq_mshr_misses::.cpu.data       136101                       # number of ReadExReq MSHR misses
system.l2.ReadExReq_mshr_misses::total         136101                       # number of ReadExReq MSHR misses
system.l2.ReadExReq_mshr_miss_latency::.cpu.data  10421598500                       # number of ReadExReq MSHR miss cycles
system.l2.ReadExReq_mshr_miss_latency::total  10421598500                       # number of ReadExReq MSHR miss cycles
system.l2.ReadExReq_mshr_miss_rate::.cpu.data     0.398952                       # mshr miss rate for ReadExReq accesses
system.l2.ReadExReq_mshr_miss_rate::total     0.398952                       # mshr miss rate for ReadExReq accesses
system.l2.ReadExReq_avg_mshr_miss_latency::.cpu.data 76572.534368                       # average ReadExReq mshr miss latency
system.l2.ReadExReq_avg_mshr_miss_latency::total 76572.534368                       # average ReadExReq mshr miss latency
system.l2.ReadCleanReq_hits::.cpu.inst             83                       # number of ReadCleanReq hits
system.l2.ReadCleanReq_hits::total                 83                       # number of ReadCleanReq hits
system.l2.ReadCleanReq_misses::.cpu.inst          668                       # number of ReadCleanReq misses
system.l2.ReadCleanReq_misses::total              668                       # number of ReadCleanReq misses
system.l2.ReadCleanReq_miss_latency::.cpu.inst     51829500                       # number of ReadCleanReq miss cycles
system.l2.ReadCleanReq_miss_latency::total     51829500                       # number of ReadCleanReq miss cycles
system.l2.ReadCleanReq_accesses::.cpu.inst          751                       # number of ReadCleanReq accesses(hits+misses)
system.l2.ReadCleanReq_accesses::total            751                       # number of ReadCleanReq accesses(hits+misses)
system.l2.ReadCleanReq_miss_rate::.cpu.inst     0.889481                       # miss rate for ReadCleanReq accesses
system.l2.ReadCleanReq_miss_rate::total      0.889481                       # miss rate for ReadCleanReq accesses
system.l2.ReadCleanReq_avg_miss_latency::.cpu.inst 77589.071856                       # average ReadCleanReq miss latency
system.l2.ReadCleanReq_avg_miss_latency::total 77589.071856                       # average ReadCleanReq miss latency
system.l2.ReadCleanReq_mshr_misses::.cpu.inst          668                       # number of ReadCleanReq MSHR misses
system.l2.ReadCleanReq_mshr_misses::total          668                       # number of ReadCleanReq MSHR misses
system.l2.ReadCleanReq_mshr_miss_latency::.cpu.inst     45149500                       # number of ReadCleanReq MSHR miss cycles
system.l2.ReadCleanReq_mshr_miss_latency::total     45149500                       # number of ReadCleanReq MSHR miss cycles
system.l2.ReadCleanReq_mshr_miss_rate::.cpu.inst     0.889481                       # mshr miss rate for ReadCleanReq accesses
system.l2.ReadCleanReq_mshr_miss_rate::total     0.889481                       # mshr miss rate for ReadCleanReq accesses
system.l2.ReadCleanReq_avg_mshr_miss_latency::.cpu.inst 67589.071856                       # average ReadCleanReq mshr miss latency
system.l2.ReadCleanReq_avg_mshr_miss_latency::total 67589.071856                       # average ReadCleanReq mshr miss latency
system.l2.ReadSharedReq_hits::.cpu.data        468676                       # number of ReadSharedReq hits
system.l2.ReadSharedReq_hits::total            468676                       # number of ReadSharedReq hits
system.l2.ReadSharedReq_misses::.cpu.data        65076                       # number of ReadSharedReq misses
system.l2.ReadSharedReq_misses::total           65076                       # number of ReadSharedReq misses
system.l2.ReadSharedReq_miss_latency::.cpu.data   5213634500                       # number of ReadSharedReq miss cycles
system.l2.ReadSharedReq_miss_latency::total   5213634500                       # number of ReadSharedReq miss cycles
system.l2.ReadSharedReq_accesses::.cpu.data       533752                       # number of ReadSharedReq accesses(hits+misses)
system.l2.ReadSharedReq_accesses::total        533752                       # number of ReadSharedReq accesses(hits+misses)
system.l2.ReadSharedReq_miss_rate::.cpu.data     0.121922                       # miss rate for ReadSharedReq accesses
system.l2.ReadSharedReq_miss_rate::total     0.121922                       # miss rate for ReadSharedReq accesses
system.l2.ReadSharedReq_avg_miss_latency::.cpu.data 80116.087344                       # average ReadSharedReq miss latency
system.l2.ReadSharedReq_avg_miss_latency::total 80116.087344                       # average ReadSharedReq miss latency
system.l2.ReadSharedReq_mshr_hits::.cpu.data            4                       # number of ReadSharedReq MSHR hits
system.l2.ReadSharedReq_mshr_hits::total            4                       # number of ReadSharedReq MSHR hits
system.l2.ReadSharedReq_mshr_misses::.cpu.data        65072                       # number of ReadSharedReq MSHR misses
system.l2.ReadSharedReq_mshr_misses::total        65072                       # number of ReadSharedReq MSHR misses
system.l2.ReadSharedReq_mshr_miss_latency::.cpu.data   4562670500                       # number of ReadSharedReq MSHR miss cycles
system.l2.ReadSharedReq_mshr_miss_latency::total   4562670500                       # number of ReadSharedReq MSHR miss cycles
system.l2.ReadSharedReq_mshr_miss_rate::.cpu.data     0.121914                       # mshr miss rate for ReadSharedReq accesses
system.l2.ReadSharedReq_mshr_miss_rate::total     0.121914                       # mshr miss rate for ReadSharedReq accesses
system.l2.ReadSharedReq_avg_mshr_miss_latency::.cpu.data 70117.262417                       # average ReadSharedReq mshr miss latency
system.l2.ReadSharedReq_avg_mshr_miss_latency::total 70117.262417                       # average ReadSharedReq mshr miss latency
system.l2.power_state.pwrStateResidencyTicks::UNDEFINED  85407964000                       # Cumulative time (in ticks) in various power states
system.l2.tags.tagsinuse                 31913.361895                       # Cycle average of tags in use
system.l2.tags.total_refs                     1750137                       # Total number of references to valid blocks.
system.l2.tags.sampled_refs                    201963                       # Sample count of references to valid blocks.
system.l2.tags.avg_refs                      8.665632                       # Average number of references to valid blocks.
system.l2.tags.warmup_cycle                     77000                       # Cycle when the warmup percentage was hit.
system.l2.tags.occ_blocks::.writebacks      42.109754                       # Average occupied blocks per requestor
system.l2.tags.occ_blocks::.cpu.inst        84.091391                       # Average occupied blocks per requestor
system.l2.tags.occ_blocks::.cpu.data     31787.160750                       # Average occupied blocks per requestor
system.l2.tags.occ_percent::.writebacks      0.001285                       # Average percentage of cache occupancy
system.l2.tags.occ_percent::.cpu.inst        0.002566                       # Average percentage of cache occupancy
system.l2.tags.occ_percent::.cpu.data        0.970067                       # Average percentage of cache occupancy
system.l2.tags.occ_percent::total            0.973919                       # Average percentage of cache occupancy
system.l2.tags.occ_task_id_blocks::1024         32768                       # Occupied blocks per task id
system.l2.tags.age_task_id_blocks_1024::0           14                       # Occupied blocks per task id
system.l2.tags.age_task_id_blocks_1024::1          137                       # Occupied blocks per task id
system.l2.tags.age_task_id_blocks_1024::2         1168                       # Occupied blocks per task id
system.l2.tags.age_task_id_blocks_1024::3        15530                       # Occupied blocks per task id
system.l2.tags.age_task_id_blocks_1024::4        15919                       # Occupied blocks per task id
system.l2.tags.occ_task_id_percent::1024            1                       # Percentage of cache occupancy per task id
system.l2.tags.tag_accesses                  14203091                       # Number of tag accesses
system.l2.tags.data_accesses                 14203091                       # Number of data accesses
system.l2.tags.power_state.pwrStateResidencyTicks::UNDEFINED  85407964000                       # Cumulative time (in ticks) in various power states
system.mem_ctrls.avgPriority_.writebacks::samples    111063.00                       # Average QoS priority value for accepted requests
system.mem_ctrls.avgPriority_.cpu.inst::samples       668.00                       # Average QoS priority value for accepted requests
system.mem_ctrls.avgPriority_.cpu.data::samples    201133.00                       # Average QoS priority value for accepted requests
system.mem_ctrls.priorityMinLatency      0.000000018750                       # per QoS priority minimum request to response latency (s)
system.mem_ctrls.priorityMaxLatency      0.003797456500                       # per QoS priority maximum request to response latency (s)
system.mem_ctrls.numReadWriteTurnArounds         6647                       # Number of turnarounds from READ to WRITE
system.mem_ctrls.numWriteReadTurnArounds         6647                       # Number of turnarounds from WRITE to READ
system.mem_ctrls.numStayReadState              526068                       # Number of times bus staying in READ state
system.mem_ctrls.numStayWriteState             104550                       # Number of times bus staying in WRITE state
system.mem_ctrls.readReqs                      201841                       # Number of read requests accepted
system.mem_ctrls.writeReqs                     111063                       # Number of write requests accepted
system.mem_ctrls.readBursts                    201841                       # Number of controller read bursts, including those serviced by the write queue
system.mem_ctrls.writeBursts                   111063                       # Number of controller write bursts, including those merged in the write queue
system.mem_ctrls.servicedByWrQ                     40                       # Number of controller read bursts serviced by the write queue
system.mem_ctrls.mergedWrBursts                     0                       # Number of controller write bursts merged with an existing one
system.mem_ctrls.neitherReadNorWriteReqs            0                       # Number of requests that are neither read nor write
system.mem_ctrls.avgRdQLen                       1.08                       # Average read queue length when enqueuing
system.mem_ctrls.avgWrQLen                      24.47                       # Average write queue length when enqueuing
system.mem_ctrls.numRdRetry                         0                       # Number of times read queue was full causing retry
system.mem_ctrls.numWrRetry                         0                       # Number of times write queue was full causing retry
system.mem_ctrls.readPktSize::0                     0                       # Read request sizes (log2)
system.mem_ctrls.readPktSize::1                     0                       # Read request sizes (log2)
system.mem_ctrls.readPktSize::2                     0                       # Read request sizes (log2)
system.mem_ctrls.readPktSize::3                     0                       # Read request sizes (log2)
system.mem_ctrls.readPktSize::4                     0                       # Read request sizes (log2)
system.mem_ctrls.readPktSize::5                     0                       # Read request sizes (log2)
system.mem_ctrls.readPktSize::6                201841                       # Read request sizes (log2)
system.mem_ctrls.writePktSize::0                    0                       # Write request sizes (log2)
system.mem_ctrls.writePktSize::1                    0                       # Write request sizes (log2)
system.mem_ctrls.writePktSize::2                    0                       # Write request sizes (log2)
system.mem_ctrls.writePktSize::3                    0                       # Write request sizes (log2)
system.mem_ctrls.writePktSize::4                    0                       # Write request sizes (log2)
system.mem_ctrls.writePktSize::5                    0                       # Write request sizes (log2)
system.mem_ctrls.writePktSize::6               111063                       # Write request sizes (log2)
system.mem_ctrls.rdQLenPdf::0                  140638                       # What read queue length does an incoming req see
system.mem_ctrls.rdQLenPdf::1                   58661                       # What read queue length does an incoming req see
system.mem_ctrls.rdQLenPdf::2                    2174                       # What read queue length does an incoming req see
system.mem_ctrls.rdQLenPdf::3                     327                       # What read queue length does an incoming req see
system.mem_ctrls.rdQLenPdf::4                       1                       # What read queue length does an incoming req see
system.mem_ctrls.rdQLenPdf::5                       0                       # What read queue length does an incoming req see
system.mem_ctrls.rdQLenPdf::6                       0                       # What read queue length does an incoming req see
system.mem_ctrls.rdQLenPdf::7                       0                       # What read queue length does an incoming req see
system.mem_ctrls.rdQLenPdf::8                       0                       # What read queue length does an incoming req see
system.mem_ctrls.rdQLenPdf::9                       0                       # What read queue length does an incoming req see
system.mem_ctrls.rdQLenPdf::10                      0                       # What read queue length does an incoming req see
[...]
system.mem_ctrls.dram.bw_write::.writebacks     83224464                       # Write bandwidth from this memory (bytes/s)
system.mem_ctrls.dram.bw_write::total        83224464                       # Write bandwidth from this memory (bytes/s)
system.mem_ctrls.dram.bw_total::.writebacks     83224464                       # Total bandwidth to/from this memory (bytes/s)
system.mem_ctrls.dram.bw_total::.cpu.inst       500562                       # Total bandwidth to/from this memory (bytes/s)
system.mem_ctrls.dram.bw_total::.cpu.data    150747909                       # Total bandwidth to/from this memory (bytes/s)
system.mem_ctrls.dram.bw_total::total       234472935                       # Total bandwidth to/from this memory (bytes/s)
system.mem_ctrls.dram.readBursts               201801                       # Number of DRAM read bursts
system.mem_ctrls.dram.writeBursts              111043                       # Number of DRAM write bursts
system.mem_ctrls.dram.perBankRdBursts::0        12893                       # Per bank write bursts
system.mem_ctrls.dram.perBankRdBursts::1        12814                       # Per bank write bursts
system.mem_ctrls.dram.perBankRdBursts::2        12757                       # Per bank write bursts
system.mem_ctrls.dram.perBankRdBursts::3        12500                       # Per bank write bursts
system.mem_ctrls.dram.perBankRdBursts::4        12517                       # Per bank write bursts
system.mem_ctrls.dram.perBankRdBursts::5        12471                       # Per bank write bursts
system.mem_ctrls.dram.perBankRdBursts::6        12471                       # Per bank write bursts
system.mem_ctrls.dram.perBankRdBursts::7        12478                       # Per bank write bursts
system.mem_ctrls.dram.perBankRdBursts::8        12197                       # Per bank write bursts
system.mem_ctrls.dram.perBankRdBursts::9        12332                       # Per bank write bursts
system.mem_ctrls.dram.perBankRdBursts::10        12634                       # Per bank write bursts
system.mem_ctrls.dram.perBankRdBursts::11        12759                       # Per bank write bursts
system.mem_ctrls.dram.perBankRdBursts::12        12726                       # Per bank write bursts
system.mem_ctrls.dram.perBankRdBursts::13        12832                       # Per bank write bursts
system.mem_ctrls.dram.perBankRdBursts::14        12699                       # Per bank write bursts
system.mem_ctrls.dram.perBankRdBursts::15        12721                       # Per bank write bursts
system.mem_ctrls.dram.perBankWrBursts::0         7073                       # Per bank write bursts
system.mem_ctrls.dram.perBankWrBursts::1         7120                       # Per bank write bursts
system.mem_ctrls.dram.perBankWrBursts::2         7065                       # Per bank write bursts
system.mem_ctrls.dram.perBankWrBursts::3         6913                       # Per bank write bursts
system.mem_ctrls.dram.perBankWrBursts::4         6996                       # Per bank write bursts
system.mem_ctrls.dram.perBankWrBursts::5         7054                       # Per bank write bursts
system.mem_ctrls.dram.perBankWrBursts::6         6997                       # Per bank write bursts
system.mem_ctrls.dram.perBankWrBursts::7         6807                       # Per bank write bursts
system.mem_ctrls.dram.perBankWrBursts::8         6552                       # Per bank write bursts
system.mem_ctrls.dram.perBankWrBursts::9         6715                       # Per bank write bursts
system.mem_ctrls.dram.perBankWrBursts::10         6886                       # Per bank write bursts
system.mem_ctrls.dram.perBankWrBursts::11         6999                       # Per bank write bursts
system.mem_ctrls.dram.perBankWrBursts::12         6951                       # Per bank write bursts
system.mem_ctrls.dram.perBankWrBursts::13         6966                       # Per bank write bursts
system.mem_ctrls.dram.perBankWrBursts::14         6956                       # Per bank write bursts
system.mem_ctrls.dram.perBankWrBursts::15         6993                       # Per bank write bursts
system.mem_ctrls.dram.totQLat              2925109500                       # Total ticks spent queuing
system.mem_ctrls.dram.totBusLat            1009005000                       # Total ticks spent in databus transfers
system.mem_ctrls.dram.totMemAccLat         6708878250                       # Total ticks spent from burst creation until serviced by the DRAM
system.mem_ctrls.dram.avgQLat                14495.02                       # Average queueing delay per DRAM burst
system.mem_ctrls.dram.avgBusLat               5000.00                       # Average bus latency per DRAM burst
system.mem_ctrls.dram.avgMemAccLat           33245.02                       # Average memory access latency per DRAM burst
system.mem_ctrls.dram.readRowHits              138752                       # Number of row buffer hits during reads
system.mem_ctrls.dram.writeRowHits              70107                       # Number of row buffer hits during writes
system.mem_ctrls.dram.readRowHitRate            68.76                       # Row buffer hit rate for reads
system.mem_ctrls.dram.writeRowHitRate           63.14                       # Row buffer hit rate for writes
system.mem_ctrls.dram.bytesPerActivate::samples       103983                       # Bytes accessed per row activation
system.mem_ctrls.dram.bytesPerActivate::mean   192.549628                       # Bytes accessed per row activation
system.mem_ctrls.dram.bytesPerActivate::gmean   112.573364                       # Bytes accessed per row activation
system.mem_ctrls.dram.bytesPerActivate::stdev   256.065644                       # Bytes accessed per row activation
system.mem_ctrls.dram.bytesPerActivate::0-127        67934     65.33%     65.33% # Bytes accessed per row activation
system.mem_ctrls.dram.bytesPerActivate::128-255        14688     14.13%     79.46% # Bytes accessed per row activation
system.mem_ctrls.dram.bytesPerActivate::256-383         2512      2.42%     81.87% # Bytes accessed per row activation
system.mem_ctrls.dram.bytesPerActivate::384-511         1618      1.56%     83.43% # Bytes accessed per row activation
system.mem_ctrls.dram.bytesPerActivate::512-639        10064      9.68%     93.11% # Bytes accessed per row activation
system.mem_ctrls.dram.bytesPerActivate::640-767          582      0.56%     93.67% # Bytes accessed per row activation
system.mem_ctrls.dram.bytesPerActivate::768-895          550      0.53%     94.20% # Bytes accessed per row activation
system.mem_ctrls.dram.bytesPerActivate::896-1023          352      0.34%     94.53% # Bytes accessed per row activation
system.mem_ctrls.dram.bytesPerActivate::1024-1151         5683      5.47%    100.00% # Bytes accessed per row activation
system.mem_ctrls.dram.bytesPerActivate::total       103983                       # Bytes accessed per row activation
system.mem_ctrls.dram.bytesRead              12915264                       # Total number of bytes read from DRAM
system.mem_ctrls.dram.bytesWritten            7106752                       # Total number of bytes written to DRAM
system.mem_ctrls.dram.avgRdBW              151.218498                       # Average DRAM read bandwidth in MiBytes/s
system.mem_ctrls.dram.avgWrBW               83.209477                       # Average DRAM write bandwidth in MiBytes/s
system.mem_ctrls.dram.peakBW                 12800.00                       # Theoretical peak bandwidth in MiByte/s
system.mem_ctrls.dram.busUtil                    1.83                       # Data bus utilization in percentage
system.mem_ctrls.dram.busUtilRead                1.18                       # Data bus utilization in percentage for reads
system.mem_ctrls.dram.busUtilWrite               0.65                       # Data bus utilization in percentage for writes
system.mem_ctrls.dram.pageHitRate               66.76                       # Row buffer hit rate, read and write combined
system.mem_ctrls.dram.power_state.pwrStateResidencyTicks::UNDEFINED  85407964000                       # Cumulative time (in ticks) in various power states
system.mem_ctrls.dram.rank0.actEnergy       373907520                       # Energy for activate commands per rank (pJ)
system.mem_ctrls.dram.rank0.preEnergy       198732765                       # Energy for precharge commands per rank (pJ)
system.mem_ctrls.dram.rank0.readEnergy      720433140                       # Energy for read commands per rank (pJ)
system.mem_ctrls.dram.rank0.writeEnergy     292450500                       # Energy for write commands per rank (pJ)
system.mem_ctrls.dram.rank0.refreshEnergy 6741986160.000001                       # Energy for refresh commands per rank (pJ)
system.mem_ctrls.dram.rank0.actBackEnergy  22110471570                       # Energy for active background per rank (pJ)
system.mem_ctrls.dram.rank0.preBackEnergy  14177314080                       # Energy for precharge background per rank (pJ)
system.mem_ctrls.dram.rank0.actPowerDownEnergy            0                       # Energy for active power-down per rank (pJ)
system.mem_ctrls.dram.rank0.prePowerDownEnergy            0                       # Energy for precharge power-down per rank (pJ)
system.mem_ctrls.dram.rank0.selfRefreshEnergy            0                       # Energy for self refresh per rank (pJ)
system.mem_ctrls.dram.rank0.totalEnergy   44615295735                       # Total energy per rank (pJ)
system.mem_ctrls.dram.rank0.averagePower   522.378636                       # Core power per rank (mW)
system.mem_ctrls.dram.rank0.totalIdleTime            0                       # Total Idle time Per DRAM Rank
system.mem_ctrls.dram.rank0.pwrStateTime::IDLE  36632328250                       # Time in different power states
system.mem_ctrls.dram.rank0.pwrStateTime::REF   2851940000                       # Time in different power states
system.mem_ctrls.dram.rank0.pwrStateTime::SREF            0                       # Time in different power states
system.mem_ctrls.dram.rank0.pwrStateTime::PRE_PDN            0                       # Time in different power states
system.mem_ctrls.dram.rank0.pwrStateTime::ACT  45923695750                       # Time in different power states
system.mem_ctrls.dram.rank0.pwrStateTime::ACT_PDN            0                       # Time in different power states
system.mem_ctrls.dram.rank1.actEnergy       368545380                       # Energy for activate commands per rank (pJ)
system.mem_ctrls.dram.rank1.preEnergy       195882720                       # Energy for precharge commands per rank (pJ)
system.mem_ctrls.dram.rank1.readEnergy      720426000                       # Energy for read commands per rank (pJ)
system.mem_ctrls.dram.rank1.writeEnergy     287193960                       # Energy for write commands per rank (pJ)
system.mem_ctrls.dram.rank1.refreshEnergy 6741986160.000001                       # Energy for refresh commands per rank (pJ)
system.mem_ctrls.dram.rank1.actBackEnergy  21957147840                       # Energy for active background per rank (pJ)
system.mem_ctrls.dram.rank1.preBackEnergy  14306428800                       # Energy for precharge background per rank (pJ)
system.mem_ctrls.dram.rank1.actPowerDownEnergy            0                       # Energy for active power-down per rank (pJ)
system.mem_ctrls.dram.rank1.prePowerDownEnergy            0                       # Energy for precharge power-down per rank (pJ)
system.mem_ctrls.dram.rank1.selfRefreshEnergy            0                       # Energy for self refresh per rank (pJ)
system.mem_ctrls.dram.rank1.totalEnergy   44577610860                       # Total energy per rank (pJ)
system.mem_ctrls.dram.rank1.averagePower   521.937402                       # Core power per rank (mW)
system.mem_ctrls.dram.rank1.totalIdleTime            0                       # Total Idle time Per DRAM Rank
system.mem_ctrls.dram.rank1.pwrStateTime::IDLE  36967497250                       # Time in different power states
system.mem_ctrls.dram.rank1.pwrStateTime::REF   2851940000                       # Time in different power states
system.mem_ctrls.dram.rank1.pwrStateTime::SREF            0                       # Time in different power states
system.mem_ctrls.dram.rank1.pwrStateTime::PRE_PDN            0                       # Time in different power states
system.mem_ctrls.dram.rank1.pwrStateTime::ACT  45588526750                       # Time in different power states
system.mem_ctrls.dram.rank1.pwrStateTime::ACT_PDN            0                       # Time in different power states
system.mem_ctrls.power_state.pwrStateResidencyTicks::UNDEFINED  85407964000                       # Cumulative time (in ticks) in various power states
system.membus.trans_dist::ReadResp              65740                       # Transaction distribution
system.membus.trans_dist::WritebackDirty       111063                       # Transaction distribution
system.membus.trans_dist::CleanEvict            57666                       # Transaction distribution
system.membus.trans_dist::ReadExReq            136101                       # Transaction distribution
system.membus.trans_dist::ReadExResp           136101                       # Transaction distribution
system.membus.trans_dist::ReadSharedReq         65740                       # Transaction distribution
system.membus.pkt_count_system.l2.mem_side_port::system.mem_ctrls.port       572411                       # Packet count per connected requestor and responder (bytes)
system.membus.pkt_count::total                 572411                       # Packet count per connected requestor and responder (bytes)
system.membus.pkt_size_system.l2.mem_side_port::system.mem_ctrls.port     20025856                       # Cumulative packet size per connected requestor and responder (bytes)
system.membus.pkt_size::total                20025856                       # Cumulative packet size per connected requestor and responder (bytes)
system.membus.snoops                                0                       # Total snoops (count)
system.membus.snoopTraffic                          0                       # Total snoop traffic (bytes)
system.membus.snoop_fanout::samples            201841                       # Request fanout histogram
system.membus.snoop_fanout::mean                    0                       # Request fanout histogram
system.membus.snoop_fanout::stdev                   0                       # Request fanout histogram
system.membus.snoop_fanout::underflows              0      0.00%      0.00% # Request fanout histogram
system.membus.snoop_fanout::0                  201841    100.00%    100.00% # Request fanout histogram
system.membus.snoop_fanout::1                       0      0.00%    100.00% # Request fanout histogram
system.membus.snoop_fanout::overflows               0      0.00%    100.00% # Request fanout histogram
system.membus.snoop_fanout::min_value               0                       # Request fanout histogram
system.membus.snoop_fanout::max_value               0                       # Request fanout histogram
system.membus.snoop_fanout::total              201841                       # Request fanout histogram
system.membus.power_state.pwrStateResidencyTicks::UNDEFINED  85407964000                       # Cumulative time (in ticks) in various power states
system.membus.reqLayer0.occupancy           852884500                       # Layer occupancy (ticks)
system.membus.reqLayer0.utilization               1.0                       # Layer utilization (%)
system.membus.respLayer1.occupancy         1086989750                       # Layer occupancy (ticks)
system.membus.respLayer1.utilization              1.3                       # Layer utilization (%)
system.tol2bus.trans_dist::ReadResp            534503                       # Transaction distribution
system.tol2bus.trans_dist::WritebackDirty       906942                       # Transaction distribution
system.tol2bus.trans_dist::WritebackClean          306                       # Transaction distribution
system.tol2bus.trans_dist::CleanEvict          136639                       # Transaction distribution
system.tol2bus.trans_dist::ReadExReq           341146                       # Transaction distribution
system.tol2bus.trans_dist::ReadExResp          341146                       # Transaction distribution
system.tol2bus.trans_dist::ReadCleanReq           751                       # Transaction distribution
system.tol2bus.trans_dist::ReadSharedReq       533752                       # Transaction distribution
system.tol2bus.pkt_count_system.cpu.icache.mem_side_port::system.l2.cpu_side_port         1808                       # Packet count per connected requestor and responder (bytes)
system.tol2bus.pkt_count_system.cpu.dcache.mem_side_port::system.l2.cpu_side_port      2624182                       # Packet count per connected requestor and responder (bytes)
system.tol2bus.pkt_count::total               2625990                       # Packet count per connected requestor and responder (bytes)
system.tol2bus.pkt_size_system.cpu.icache.mem_side_port::system.l2.cpu_side_port        67648                       # Cumulative packet size per connected requestor and responder (bytes)
system.tol2bus.pkt_size_system.cpu.dcache.mem_side_port::system.l2.cpu_side_port    106929728                       # Cumulative packet size per connected requestor and responder (bytes)
system.tol2bus.pkt_size::total              106997376                       # Cumulative packet size per connected requestor and responder (bytes)
system.tol2bus.snoops                          169195                       # Total snoops (count)
system.tol2bus.snoopTraffic                   7108032                       # Total snoop traffic (bytes)
system.tol2bus.snoop_fanout::samples          1044844                       # Request fanout histogram
system.tol2bus.snoop_fanout::mean            0.000639                       # Request fanout histogram
system.tol2bus.snoop_fanout::stdev           0.025277                       # Request fanout histogram
system.tol2bus.snoop_fanout::underflows             0      0.00%      0.00% # Request fanout histogram
system.tol2bus.snoop_fanout::0                1044176     99.94%     99.94% # Request fanout histogram
system.tol2bus.snoop_fanout::1                    668      0.06%    100.00% # Request fanout histogram
system.tol2bus.snoop_fanout::2                      0      0.00%    100.00% # Request fanout histogram
system.tol2bus.snoop_fanout::overflows              0      0.00%    100.00% # Request fanout histogram
system.tol2bus.snoop_fanout::min_value              0                       # Request fanout histogram
system.tol2bus.snoop_fanout::max_value              1                       # Request fanout histogram
system.tol2bus.snoop_fanout::total            1044844                       # Request fanout histogram
system.tol2bus.power_state.pwrStateResidencyTicks::UNDEFINED  85407964000                       # Cumulative time (in ticks) in various power states
system.tol2bus.reqLayer0.occupancy         1671355500                       # Layer occupancy (ticks)
system.tol2bus.reqLayer0.utilization              2.0                       # Layer utilization (%)
system.tol2bus.respLayer0.occupancy           1126500                       # Layer occupancy (ticks)
system.tol2bus.respLayer0.utilization             0.0                       # Layer utilization (%)
system.tol2bus.respLayer1.occupancy        1312348996                       # Layer occupancy (ticks)
system.tol2bus.respLayer1.utilization             1.5                       # Layer utilization (%)
system.voltage_domain.voltage                       1                       # Voltage in Volts

---------- End Simulation Statistics   ----------
