
---------- Begin Simulation Statistics ----------
final_tick                                83703336000                       # Number of ticks from beginning of simulation (restored from checkpoints and never reset)
host_inst_rate                                 250098                       # Simulator instruction rate (inst/s)
host_mem_usage                                 669912                       # Number of bytes of host memory used
host_op_rate                                   250589                       # Simulator op (including micro ops) rate (op/s)
host_seconds                                   399.84                       # Real time elapsed on the host
host_tick_rate                              209340430                       # Simulator tick rate (ticks/s)
sim_freq                                 1000000000000                       # Frequency of simulated ticks
sim_insts                                   100000000                       # Number of instructions simulated
sim_ops                                     100196363                       # Number of ops (including micro ops) simulated
sim_seconds                                  0.083703                       # Number of seconds simulated
sim_ticks                                 83703336000                       # Number of ticks simulated
system.cpu.committedInsts                   100000000                       # Number of instructions committed
system.cpu.committedOps                     100196363                       # Number of ops (including micro ops) committed
system.cpu.cpi                               1.674067                       # CPI: cycles per instruction
system.cpu.discardedOps                        191219                       # Number of ops (including micro ops) which were discarded before commit
system.cpu.idleCycles                        34667473                       # Total number of cycles that the object has spent stopped
system.cpu.ipc                               0.597348                       # IPC: instructions per cycle
system.cpu.numCycles                        167406672                       # number of cpu cycles simulated
system.cpu.numFetchSuspends                         0                       # Number of times Execute suspended instruction fetching
system.cpu.numWorkItemsCompleted                    0                       # number of work items this cpu completed
system.cpu.numWorkItemsStarted                      0                       # number of work items this cpu started
system.cpu.op_class_0::No_OpClass                   0      0.00%      0.00% # Class of committed instruction
system.cpu.op_class_0::IntAlu                46526151     46.43%     46.43% # Class of committed instruction
system.cpu.op_class_0::IntMult                  20720      0.02%     46.46% # Class of committed instruction
system.cpu.op_class_0::IntDiv                       0      0.00%     46.46% # Class of committed instruction
system.cpu.op_class_0::FloatAdd                     0      0.00%     46.46% # Class of committed instruction
system.cpu.op_class_0::FloatCmp                     0      0.00%     46.46% # Class of committed instruction
system.cpu.op_class_0::FloatCvt                     0      0.00%     46.46% # Class of committed instruction
system.cpu.op_class_0::FloatMult                    0      0.00%     46.46% # Class of committed instruction
system.cpu.op_class_0::FloatMultAcc                 0      0.00%     46.46% # Class of committed instruction
system.cpu.op_class_0::FloatDiv                     0      0.00%     46.46% # Class of committed instruction
system.cpu.op_class_0::FloatMisc                    0      0.00%     46.46% # Class of committed instruction
system.cpu.op_class_0::FloatSqrt                    0      0.00%     46.46% # Class of committed instruction
system.cpu.op_class_0::SimdAdd                      0      0.00%     46.46% # Class of committed instruction
system.cpu.op_class_0::SimdAddAcc                   0      0.00%     46.46% # Class of committed instruction
system.cpu.op_class_0::SimdAlu                      0      0.00%     46.46% # Class of committed instruction
system.cpu.op_class_0::SimdCmp                      0      0.00%     46.46% # Class of committed instruction
system.cpu.op_class_0::SimdCvt                      0      0.00%     46.46% # Class of committed instruction
system.cpu.op_class_0::SimdMisc                     0      0.00%     46.46% # Class of committed instruction
system.cpu.op_class_0::SimdMult                     0      0.00%     46.46% # Class of committed instruction
system.cpu.op_class_0::SimdMultAcc                  0      0.00%     46.46% # Class of committed instruction
system.cpu.op_class_0::SimdShift                    0      0.00%     46.46% # Class of committed instruction
system.cpu.op_class_0::SimdShiftAcc                 0      0.00%     46.46% # Class of committed instruction
system.cpu.op_class_0::SimdDiv                      0      0.00%     46.46% # Class of committed instruction
system.cpu.op_class_0::SimdSqrt                     0      0.00%     46.46% # Class of committed instruction
system.cpu.op_class_0::SimdFloatAdd                 0      0.00%     46.46% # Class of committed instruction
system.cpu.op_class_0::SimdFloatAlu                 0      0.00%     46.46% # Class of committed instruction
system.cpu.op_class_0::SimdFloatCmp                 0      0.00%     46.46% # Class of committed instruction
system.cpu.op_class_0::SimdFloatCvt                 0      0.00%     46.46% # Class of committed instruction
system.cpu.op_class_0::SimdFloatDiv                 0      0.00%     46.46% # Class of committed instruction
system.cpu.op_class_0::SimdFloatMisc               18      0.00%     46.46% # Class of committed instruction
system.cpu.op_class_0::SimdFloatMult                0      0.00%     46.46% # Class of committed instruction
system.cpu.op_class_0::SimdFloatMultAcc             0      0.00%     46.46% # Class of committed instruction
system.cpu.op_class_0::SimdFloatSqrt                0      0.00%     46.46% # Class of committed instruction
system.cpu.op_class_0::SimdReduceAdd                0      0.00%     46.46% # Class of committed instruction
system.cpu.op_class_0::SimdReduceAlu                0      0.00%     46.46% # Class of committed instruction
system.cpu.op_class_0::SimdReduceCmp                0      0.00%     46.46% # Class of committed instruction
system.cpu.op_class_0::SimdFloatReduceAdd            0      0.00%     46.46% # Class of committed instruction
system.cpu.op_class_0::SimdFloatReduceCmp            0      0.00%     46.46% # Class of committed instruction
system.cpu.op_class_0::SimdAes                      0      0.00%     46.46% # Class of committed instruction
system.cpu.op_class_0::SimdAesMix                   0      0.00%     46.46% # Class of committed instruction
system.cpu.op_class_0::SimdSha1Hash                 0      0.00%     46.46% # Class of committed instruction
system.cpu.op_class_0::SimdSha1Hash2                0      0.00%     46.46% # Class of committed instruction
system.cpu.op_class_0::SimdSha256Hash               0      0.00%     46.46% # Class of committed instruction
system.cpu.op_class_0::SimdSha256Hash2              0      0.00%     46.46% # Class of committed instruction
system.cpu.op_class_0::SimdShaSigma2                0      0.00%     46.46% # Class of committed instruction
system.cpu.op_class_0::SimdShaSigma3                0      0.00%     46.46% # Class of committed instruction
system.cpu.op_class_0::SimdPredAlu                  0      0.00%     46.46% # Class of committed instruction
system.cpu.op_class_0::MemRead               42691081     42.61%     89.06% # Class of committed instruction
system.cpu.op_class_0::MemWrite              10958393     10.94%    100.00% # Class of committed instruction
system.cpu.op_class_0::FloatMemRead                 0      0.00%    100.00% # Class of committed instruction
system.cpu.op_class_0::FloatMemWrite                0      0.00%    100.00% # Class of committed instruction
system.cpu.op_class_0::IprAccess                    0      0.00%    100.00% # Class of committed instruction
system.cpu.op_class_0::InstPrefetch                 0      0.00%    100.00% # Class of committed instruction
system.cpu.op_class_0::total                100196363                       # Class of committed instruction
system.cpu.tickCycles                       132739199                       # Number of cycles that the object actually ticked
system.cpu.workload.numSyscalls                    84                       # Number of system calls
system.membus.snoop_filter.hit_multi_requests            0                       # Number of requests hitting in the snoop filter with multiple (>1) holders of the requested data.
system.membus.snoop_filter.hit_multi_snoops            0                       # Number of snoops hitting in the snoop filter with multiple (>1) holders of the requested data.
system.membus.snoop_filter.hit_single_requests       168660                       # Number of requests hitting in the snoop filter with a single holder of the requested data.
system.membus.snoop_filter.hit_single_snoops            0                       # Number of snoops hitting in the snoop filter with a single holder of the requested data.
system.membus.snoop_filter.tot_requests        370479                       # Total number of requests made to the snoop filter.
system.membus.snoop_filter.tot_snoops               0                       # Total number of snoops made to the snoop filter.
system.tol2bus.snoop_filter.hit_multi_requests          115                       # Number of requests hitting in the snoop filter with multiple (>1) holders of the requested data.
system.tol2bus.snoop_filter.hit_multi_snoops            0                       # Number of snoops hitting in the snoop filter with multiple (>1) holders of the requested data.
system.tol2bus.snoop_filter.hit_single_requests       682045                       # Number of requests hitting in the snoop filter with a single holder of the requested data.
system.tol2bus.snoop_filter.hit_single_snoops          553                       # Number of snoops hitting in the snoop filter with a single holder of the requested data.
system.tol2bus.snoop_filter.tot_requests      1365615                       # Total number of requests made to the snoop filter.
system.tol2bus.snoop_filter.tot_snoops            553                       # Total number of snoops made to the snoop filter.
system.clk_domain.clock                          1000                       # Clock period in ticks
system.cpu.branchPred.lookups                 4485351                       # Number of BP lookups
system.cpu.branchPred.condPredicted           3734826                       # Number of conditional branches predicted
system.cpu.branchPred.condIncorrect             80996                       # Number of conditional branches incorrect
system.cpu.branchPred.BTBLookups              2103924                       # Number of BTB lookups
system.cpu.branchPred.BTBHits                 2101871                       # Number of BTB hits
system.cpu.branchPred.BTBHitPct             99.902420                       # BTB Hit Percentage
system.cpu.branchPred.RASUsed                   65389                       # Number of times the RAS was used to get a target.
system.cpu.branchPred.RASIncorrect                 14                       # Number of incorrect RAS predictions.
system.cpu.branchPred.indirectLookups             692                       # Number of indirect predictor lookups.
system.cpu.branchPred.indirectHits                289                       # Number of indirect target hits.
system.cpu.branchPred.indirectMisses              403                       # Number of indirect misses.
system.cpu.branchPred.indirectMispredicted          169                       # Number of mispredicted indirect branches.
system.cpu.dcache.demand_hits::.cpu.data     51331145                       # number of demand (read+write) hits
system.cpu.dcache.demand_hits::total         51331145                       # number of demand (read+write) hits
system.cpu.dcache.overall_hits::.cpu.data     51331647                       # number of overall hits
system.cpu.dcache.overall_hits::total        51331647                       # number of overall hits
system.cpu.dcache.demand_misses::.cpu.data       734087                       # number of demand (read+write) misses
system.cpu.dcache.demand_misses::total         734087                       # number of demand (read+write) misses
system.cpu.dcache.overall_misses::.cpu.data       742000                       # number of overall misses
system.cpu.dcache.overall_misses::total        742000                       # number of overall misses
system.cpu.dcache.demand_miss_latency::.cpu.data  24674092500                       # number of demand (read+write) miss cycles
system.cpu.dcache.demand_miss_latency::total  24674092500                       # number of demand (read+write) miss cycles
system.cpu.dcache.overall_miss_latency::.cpu.data  24674092500                       # number of overall miss cycles
system.cpu.dcache.overall_miss_latency::total  24674092500                       # number of overall miss cycles
system.cpu.dcache.demand_accesses::.cpu.data     52065232                       # number of demand (read+write) accesses
system.cpu.dcache.demand_accesses::total     52065232                       # number of demand (read+write) accesses
system.cpu.dcache.overall_accesses::.cpu.data     52073647                       # number of overall (read+write) accesses
system.cpu.dcache.overall_accesses::total     52073647                       # number of overall (read+write) accesses
system.cpu.dcache.demand_miss_rate::.cpu.data     0.014099                       # miss rate for demand accesses
system.cpu.dcache.demand_miss_rate::total     0.014099                       # miss rate for demand accesses
system.cpu.dcache.overall_miss_rate::.cpu.data     0.014249                       # miss rate for overall accesses
system.cpu.dcache.overall_miss_rate::total     0.014249                       # miss rate for overall accesses
system.cpu.dcache.demand_avg_miss_latency::.cpu.data 33611.945859                       # average overall miss latency
system.cpu.dcache.demand_avg_miss_latency::total 33611.945859                       # average overall miss latency
system.cpu.dcache.overall_avg_miss_latency::.cpu.data 33253.493935                       # average overall miss latency
system.cpu.dcache.overall_avg_miss_latency::total 33253.493935                       # average overall miss latency
system.cpu.dcache.blocked_cycles::no_mshrs       214781                       # number of cycles access was blocked
system.cpu.dcache.blocked_cycles::no_targets            0                       # number of cycles access was blocked
system.cpu.dcache.blocked::no_mshrs              3313                       # number of cycles access was blocked
system.cpu.dcache.blocked::no_targets               0                       # number of cycles access was blocked
system.cpu.dcache.avg_blocked_cycles::no_mshrs    64.829762                       # average number of cycles each access was blocked
system.cpu.dcache.avg_blocked_cycles::no_targets          nan                       # average number of cycles each access was blocked
system.cpu.dcache.writebacks::.writebacks       606182                       # number of writebacks
system.cpu.dcache.writebacks::total            606182                       # number of writebacks
system.cpu.dcache.demand_mshr_hits::.cpu.data        59096                       # number of demand (read+write) MSHR hits
system.cpu.dcache.demand_mshr_hits::total        59096                       # number of demand (read+write) MSHR hits
system.cpu.dcache.overall_mshr_hits::.cpu.data        59096                       # number of overall MSHR hits
system.cpu.dcache.overall_mshr_hits::total        59096                       # number of overall MSHR hits
system.cpu.dcache.demand_mshr_misses::.cpu.data       674991                       # number of demand (read+write) MSHR misses
system.cpu.dcache.demand_mshr_misses::total       674991                       # number of demand (read+write) MSHR misses
system.cpu.dcache.overall_mshr_misses::.cpu.data       682898                       # number of overall MSHR misses
system.cpu.dcache.overall_mshr_misses::total       682898                       # number of overall MSHR misses
system.cpu.dcache.demand_mshr_miss_latency::.cpu.data  22391250500                       # number of demand (read+write) MSHR miss cycles
system.cpu.dcache.demand_mshr_miss_latency::total  22391250500                       # number of demand (read+write) MSHR miss cycles
system.cpu.dcache.overall_mshr_miss_latency::.cpu.data  23083069499                       # number of overall MSHR miss cycles
system.cpu.dcache.overall_mshr_miss_latency::total  23083069499                       # number of overall MSHR miss cycles
system.cpu.dcache.demand_mshr_miss_rate::.cpu.data     0.012964                       # mshr miss rate for demand accesses
system.cpu.dcache.demand_mshr_miss_rate::total     0.012964                       # mshr miss rate for demand accesses
system.cpu.dcache.overall_mshr_miss_rate::.cpu.data     0.013114                       # mshr miss rate for overall accesses
system.cpu.dcache.overall_mshr_miss_rate::total     0.013114                       # mshr miss rate for overall accesses
system.cpu.dcache.demand_avg_mshr_miss_latency::.cpu.data 33172.665265                       # average overall mshr miss latency
system.cpu.dcache.demand_avg_mshr_miss_latency::total 33172.665265                       # average overall mshr miss latency
system.cpu.dcache.overall_avg_mshr_miss_latency::.cpu.data 33801.635821                       # average overall mshr miss latency
system.cpu.dcache.overall_avg_mshr_miss_latency::total 33801.635821                       # average overall mshr miss latency
system.cpu.dcache.replacements                 681874                       # number of replacements
system.cpu.dcache.ReadReq_hits::.cpu.data     40727227                       # number of ReadReq hits
system.cpu.dcache.ReadReq_hits::total        40727227                       # number of ReadReq hits
system.cpu.dcache.ReadReq_misses::.cpu.data       388744                       # number of ReadReq misses
system.cpu.dcache.ReadReq_misses::total        388744                       # number of ReadReq misses
system.cpu.dcache.ReadReq_miss_latency::.cpu.data   8995247500                       # number of ReadReq miss cycles
system.cpu.dcache.ReadReq_miss_latency::total   8995247500                       # number of ReadReq miss cycles
system.cpu.dcache.ReadReq_accesses::.cpu.data     41115971                       # number of ReadReq accesses(hits+misses)
system.cpu.dcache.ReadReq_accesses::total     41115971                       # number of ReadReq accesses(hits+misses)
system.cpu.dcache.ReadReq_miss_rate::.cpu.data     0.009455                       # miss rate for ReadReq accesses
system.cpu.dcache.ReadReq_miss_rate::total     0.009455                       # miss rate for ReadReq accesses
system.cpu.dcache.ReadReq_avg_miss_latency::.cpu.data 23139.257455                       # average ReadReq miss latency
system.cpu.dcache.ReadReq_avg_miss_latency::total 23139.257455                       # average ReadReq miss latency
system.cpu.dcache.ReadReq_mshr_hits::.cpu.data          582                       # number of ReadReq MSHR hits
system.cpu.dcache.ReadReq_mshr_hits::total          582                       # number of ReadReq MSHR hits
system.cpu.dcache.ReadReq_mshr_misses::.cpu.data       388162                       # number of ReadReq MSHR misses
system.cpu.dcache.ReadReq_mshr_misses::total       388162                       # number of ReadReq MSHR misses
system.cpu.dcache.ReadReq_mshr_miss_latency::.cpu.data   8584022500                       # number of ReadReq MSHR miss cycles
system.cpu.dcache.ReadReq_mshr_miss_latency::total   8584022500                       # number of ReadReq MSHR miss cycles
system.cpu.dcache.ReadReq_mshr_miss_rate::.cpu.data     0.009441                       # mshr miss rate for ReadReq accesses
system.cpu.dcache.ReadReq_mshr_miss_rate::total     0.009441                       # mshr miss rate for ReadReq accesses
system.cpu.dcache.ReadReq_avg_mshr_miss_latency::.cpu.data 22114.535941                       # average ReadReq mshr miss latency
system.cpu.dcache.ReadReq_avg_mshr_miss_latency::total 22114.535941                       # average ReadReq mshr miss latency
system.cpu.dcache.WriteReq_hits::.cpu.data     10603918                       # number of WriteReq hits
system.cpu.dcache.WriteReq_hits::total       10603918                       # number of WriteReq hits
system.cpu.dcache.WriteReq_misses::.cpu.data       345343                       # number of WriteReq misses
system.cpu.dcache.WriteReq_misses::total       345343                       # number of WriteReq misses
system.cpu.dcache.WriteReq_miss_latency::.cpu.data  15678845000                       # number of WriteReq miss cycles
system.cpu.dcache.WriteReq_miss_latency::total  15678845000                       # number of WriteReq miss cycles
system.cpu.dcache.WriteReq_accesses::.cpu.data     10949261                       # number of WriteReq accesses(hits+misses)
system.cpu.dcache.WriteReq_accesses::total     10949261                       # number of WriteReq accesses(hits+misses)
system.cpu.dcache.WriteReq_miss_rate::.cpu.data     0.031540                       # miss rate for WriteReq accesses
system.cpu.dcache.WriteReq_miss_rate::total     0.031540                       # miss rate for WriteReq accesses
system.cpu.dcache.WriteReq_avg_miss_latency::.cpu.data 45400.789939                       # average WriteReq miss latency
system.cpu.dcache.WriteReq_avg_miss_latency::total 45400.789939                       # average WriteReq miss latency
system.cpu.dcache.WriteReq_mshr_hits::.cpu.data        58514                       # number of WriteReq MSHR hits
system.cpu.dcache.WriteReq_mshr_hits::total        58514                       # number of WriteReq MSHR hits
system.cpu.dcache.WriteReq_mshr_misses::.cpu.data       286829                       # number of WriteReq MSHR misses
system.cpu.dcache.WriteReq_mshr_misses::total       286829                       # number of WriteReq MSHR misses
system.cpu.dcache.WriteReq_mshr_miss_latency::.cpu.data  13807228000                       # number of WriteReq MSHR miss cycles
system.cpu.dcache.WriteReq_mshr_miss_latency::total  13807228000                       # number of WriteReq MSHR miss cycles
system.cpu.dcache.WriteReq_mshr_miss_rate::.cpu.data     0.026196                       # mshr miss rate for WriteReq accesses
system.cpu.dcache.WriteReq_mshr_miss_rate::total     0.026196                       # mshr miss rate for WriteReq accesses
system.cpu.dcache.WriteReq_avg_mshr_miss_latency::.cpu.data 48137.489584                       # average WriteReq mshr miss latency
system.cpu.dcache.WriteReq_avg_mshr_miss_latency::total 48137.489584                       # average WriteReq mshr miss latency
system.cpu.dcache.SoftPFReq_hits::.cpu.data          502                       # number of SoftPFReq hits
system.cpu.dcache.SoftPFReq_hits::total           502                       # number of SoftPFReq hits
system.cpu.dcache.SoftPFReq_misses::.cpu.data         7913                       # number of SoftPFReq misses
system.cpu.dcache.SoftPFReq_misses::total         7913                       # number of SoftPFReq misses
system.cpu.dcache.SoftPFReq_accesses::.cpu.data         8415                       # number of SoftPFReq accesses(hits+misses)
system.cpu.dcache.SoftPFReq_accesses::total         8415                       # number of SoftPFReq accesses(hits+misses)
system.cpu.dcache.SoftPFReq_miss_rate::.cpu.data     0.940345                       # miss rate for SoftPFReq accesses
system.cpu.dcache.SoftPFReq_miss_rate::total     0.940345                       # miss rate for SoftPFReq accesses
system.cpu.dcache.SoftPFReq_mshr_misses::.cpu.data         7907                       # number of SoftPFReq MSHR misses
system.cpu.dcache.SoftPFReq_mshr_misses::total         7907                       # number of SoftPFReq MSHR misses
system.cpu.dcache.SoftPFReq_mshr_miss_latency::.cpu.data    691818999                       # number of SoftPFReq MSHR miss cycles
system.cpu.dcache.SoftPFReq_mshr_miss_latency::total    691818999                       # number of SoftPFReq MSHR miss cycles
system.cpu.dcache.SoftPFReq_mshr_miss_rate::.cpu.data     0.939632                       # mshr miss rate for SoftPFReq accesses
system.cpu.dcache.SoftPFReq_mshr_miss_rate::total     0.939632                       # mshr miss rate for SoftPFReq accesses
system.cpu.dcache.SoftPFReq_avg_mshr_miss_latency::.cpu.data 87494.498419                       # average SoftPFReq mshr miss latency
system.cpu.dcache.SoftPFReq_avg_mshr_miss_latency::total 87494.498419                       # average SoftPFReq mshr miss latency
system.cpu.dcache.LoadLockedReq_hits::.cpu.data           38                       # number of LoadLockedReq hits
system.cpu.dcache.LoadLockedReq_hits::total           38                       # number of LoadLockedReq hits
system.cpu.dcache.LoadLockedReq_accesses::.cpu.data           38                       # number of LoadLockedReq accesses(hits+misses)
system.cpu.dcache.LoadLockedReq_accesses::total           38                       # number of LoadLockedReq accesses(hits+misses)
system.cpu.dcache.StoreCondReq_hits::.cpu.data           38                       # number of StoreCondReq hits
system.cpu.dcache.StoreCondReq_hits::total           38                       # number of StoreCondReq hits
system.cpu.dcache.StoreCondReq_accesses::.cpu.data           38                       # number of StoreCondReq accesses(hits+misses)
system.cpu.dcache.StoreCondReq_accesses::total           38                       # number of StoreCondReq accesses(hits+misses)
system.cpu.dcache.power_state.pwrStateResidencyTicks::UNDEFINED  83703336000                       # Cumulative time (in ticks) in various power states
system.cpu.dcache.tags.tagsinuse          1008.000623                       # Cycle average of tags in use
system.cpu.dcache.tags.total_refs            52014621                       # Total number of references to valid blocks.
system.cpu.dcache.tags.sampled_refs            682898                       # Sample count of references to valid blocks.
system.cpu.dcache.tags.avg_refs             76.167482                       # Average number of references to valid blocks.
system.cpu.dcache.tags.warmup_cycle            176500                       # Cycle when the warmup percentage was hit.
system.cpu.dcache.tags.occ_blocks::.cpu.data  1008.000623                       # Average occupied blocks per requestor
system.cpu.dcache.tags.occ_percent::.cpu.data     0.984376                       # Average percentage of cache occupancy
system.cpu.dcache.tags.occ_percent::total     0.984376                       # Average percentage of cache occupancy
system.cpu.dcache.tags.occ_task_id_blocks::1024         1024                       # Occupied blocks per task id
system.cpu.dcache.tags.age_task_id_blocks_1024::0          104                       # Occupied blocks per task id
system.cpu.dcache.tags.age_task_id_blocks_1024::1          510                       # Occupied blocks per task id
system.cpu.dcache.tags.age_task_id_blocks_1024::2          407                       # Occupied blocks per task id
system.cpu.dcache.tags.age_task_id_blocks_1024::3            3                       # Occupied blocks per task id
system.cpu.dcache.tags.occ_task_id_percent::1024            1                       # Percentage of cache occupancy per task id
system.cpu.dcache.tags.tag_accesses         104830344                       # Number of tag accesses
system.cpu.dcache.tags.data_accesses        104830344                       # Number of data accesses
system.cpu.dcache.tags.power_state.pwrStateResidencyTicks::UNDEFINED  83703336000                       # Cumulative time (in ticks) in various power states
system.cpu.dtb.instHits                             0                       # ITB inst hits
system.cpu.dtb.instMisses                           0                       # ITB inst misses
system.cpu.dtb.readHits                             0                       # DTB read hits
system.cpu.dtb.readMisses                           0                       # DTB read misses
system.cpu.dtb.writeHits                            0                       # DTB write hits
system.cpu.dtb.writeMisses                          0                       # DTB write misses
system.cpu.dtb.inserts                              0                       # Number of times an entry is inserted into the TLB
system.cpu.dtb.flushTlb                             0                       # Number of times complete TLB was flushed
system.cpu.dtb.flushTlbMva                          0                       # Number of times TLB was flushed by MVA
system.cpu.dtb.flushTlbMvaAsid                      0                       # Number of times TLB was flushed by MVA & ASID
system.cpu.dtb.flushTlbAsid                         0                       # Number of times TLB was flushed by ASID
system.cpu.dtb.flushedEntries                       0                       # Number of entries that have been flushed from TLB
system.cpu.dtb.alignFaults                          0                       # Number of TLB faults due to alignment restrictions
system.cpu.dtb.prefetchFaults                       0                       # Number of TLB faults due to prefetch
system.cpu.dtb.domainFaults                         0                       # Number of TLB faults due to domain restrictions
system.cpu.dtb.permsFaults                          0                       # Number of TLB faults due to permissions restrictions
system.cpu.dtb.readAccesses                         0                       # DTB read accesses
system.cpu.dtb.writeAccesses                        0                       # DTB write accesses
system.cpu.dtb.instAccesses                         0                       # ITB inst accesses
system.cpu.dtb.hits                                 0                       # Total TLB (inst and data) hits
system.cpu.dtb.misses                               0                       # Total TLB (inst and data) misses
system.cpu.dtb.accesses                             0                       # Total TLB (inst and data) accesses
system.cpu.dtb.stage2_mmu.stage2_tlb.instHits            0                       # ITB inst hits
system.cpu.dtb.stage2_mmu.stage2_tlb.instMisses            0                       # ITB inst misses
system.cpu.dtb.stage2_mmu.stage2_tlb.readHits            0                       # DTB read hits
system.cpu.dtb.stage2_mmu.stage2_tlb.readMisses            0                       # DTB read misses
system.cpu.dtb.stage2_mmu.stage2_tlb.writeHits            0                       # DTB write hits
system.cpu.dtb.stage2_mmu.stage2_tlb.writeMisses            0                       # DTB write misses
system.cpu.dtb.stage2_mmu.stage2_tlb.inserts            0                       # Number of times an entry is inserted into the TLB
system.cpu.dtb.stage2_mmu.stage2_tlb.flushTlb            0                       # Number of times complete TLB was flushed
system.cpu.dtb.stage2_mmu.stage2_tlb.flushTlbMva            0                       # Number of times TLB was flushed by MVA
system.cpu.dtb.stage2_mmu.stage2_tlb.flushTlbMvaAsid            0                       # Number of times TLB was flushed by MVA & ASID
system.cpu.dtb.stage2_mmu.stage2_tlb.flushTlbAsid            0                       # Number of times TLB was flushed by ASID
system.cpu.dtb.stage2_mmu.stage2_tlb.flushedEntries            0                       # Number of entries that have been flushed from TLB
system.cpu.dtb.stage2_mmu.stage2_tlb.alignFaults            0                       # Number of TLB faults due to alignment restrictions
system.cpu.dtb.stage2_mmu.stage2_tlb.prefetchFaults            0                       # Number of TLB faults due to prefetch
system.cpu.dtb.stage2_mmu.stage2_tlb.domainFaults            0                       # Number of TLB faults due to domain restrictions
system.cpu.dtb.stage2_mmu.stage2_tlb.permsFaults            0                       # Number of TLB faults due to permissions restrictions
system.cpu.dtb.stage2_mmu.stage2_tlb.readAccesses            0                       # DTB read accesses
system.cpu.dtb.stage2_mmu.stage2_tlb.writeAccesses            0                       # DTB write accesses
system.cpu.dtb.stage2_mmu.stage2_tlb.instAccesses            0                       # ITB inst accesses
system.cpu.dtb.stage2_mmu.stage2_tlb.hits            0                       # Total TLB (inst and data) hits
system.cpu.dtb.stage2_mmu.stage2_tlb.misses            0                       # Total TLB (inst and data) misses
system.cpu.dtb.stage2_mmu.stage2_tlb.accesses            0                       # Total TLB (inst and data) accesses
system.cpu.dtb.stage2_mmu.stage2_tlb.walker.walks            0                       # Table walker walks requested
system.cpu.dtb.stage2_mmu.stage2_tlb.walker.requestOrigin_Requested::Data            0                       # Table walker requests started/completed, data/inst
system.cpu.dtb.stage2_mmu.stage2_tlb.walker.requestOrigin_Requested::Inst            0                       # Table walker requests started/completed, data/inst
system.cpu.dtb.stage2_mmu.stage2_tlb.walker.requestOrigin_Requested::total            0                       # Table walker requests started/completed, data/inst
system.cpu.dtb.stage2_mmu.stage2_tlb.walker.requestOrigin_Completed::Data            0                       # Table walker requests started/completed, data/inst
system.cpu.dtb.stage2_mmu.stage2_tlb.walker.requestOrigin_Completed::Inst            0                       # Table walker requests started/completed, data/inst
system.cpu.dtb.stage2_mmu.stage2_tlb.walker.requestOrigin_Completed::total            0                       # Table walker requests started/completed, data/inst
system.cpu.dtb.stage2_mmu.stage2_tlb.walker.requestOrigin::total            0                       # Table walker requests started/completed, data/inst
system.cpu.dtb.stage2_mmu.stage2_tlb.walker.power_state.pwrStateResidencyTicks::UNDEFINED  83703336000                       # Cumulative time (in ticks) in various power states
system.cpu.dtb.walker.walks                         0                       # Table walker walks requested
system.cpu.dtb.walker.requestOrigin_Requested::Data            0                       # Table walker requests started/completed, data/inst
system.cpu.dtb.walker.requestOrigin_Requested::Inst            0                       # Table walker requests started/completed, data/inst
system.cpu.dtb.walker.requestOrigin_Requested::total            0                       # Table walker requests started/completed, data/inst
system.cpu.dtb.walker.requestOrigin_Completed::Data            0                       # Table walker requests started/completed, data/inst
system.cpu.dtb.walker.requestOrigin_Completed::Inst            0                       # Table walker requests started/completed, data/inst
system.cpu.dtb.walker.requestOrigin_Completed::total            0                       # Table walker requests started/completed, data/inst
system.cpu.dtb.walker.requestOrigin::total            0                       # Table walker requests started/completed, data/inst
system.cpu.dtb.walker.power_state.pwrStateResidencyTicks::UNDEFINED  83703336000                       # Cumulative time (in ticks) in various power states
system.cpu.fetch2.intInstructions            42684856                       # Number of integer instructions successfully decoded
system.cpu.fetch2.fpInstructions                    0                       # Number of floating point instructions successfully decoded
system.cpu.fetch2.vecInstructions                   0                       # Number of SIMD instructions successfully decoded
system.cpu.fetch2.loadInstructions           43474077                       # Number of memory load instructions successfully decoded
system.cpu.fetch2.storeInstructions          11025770                       # Number of memory store instructions successfully decoded
system.cpu.fetch2.amoInstructions                   0                       # Number of memory atomic instructions successfully decoded
system.cpu.icache.demand_hits::.cpu.inst      9700262                       # number of demand (read+write) hits
system.cpu.icache.demand_hits::total          9700262                       # number of demand (read+write) hits
system.cpu.icache.overall_hits::.cpu.inst      9700262                       # number of overall hits
system.cpu.icache.overall_hits::total         9700262                       # number of overall hits
system.cpu.icache.demand_misses::.cpu.inst          674                       # number of demand (read+write) misses
system.cpu.icache.demand_misses::total            674                       # number of demand (read+write) misses
system.cpu.icache.overall_misses::.cpu.inst          674                       # number of overall misses
system.cpu.icache.overall_misses::total           674                       # number of overall misses
system.cpu.icache.demand_miss_latency::.cpu.inst     53543500                       # number of demand (read+write) miss cycles
system.cpu.icache.demand_miss_latency::total     53543500                       # number of demand (read+write) miss cycles
system.cpu.icache.overall_miss_latency::.cpu.inst     53543500                       # number of overall miss cycles
system.cpu.icache.overall_miss_latency::total     53543500                       # number of overall miss cycles
system.cpu.icache.demand_accesses::.cpu.inst      9700936                       # number of demand (read+write) accesses
system.cpu.icache.demand_accesses::total      9700936                       # number of demand (read+write) accesses
system.cpu.icache.overall_accesses::.cpu.inst      9700936                       # number of overall (read+write) accesses
system.cpu.icache.overall_accesses::total      9700936                       # number of overall (read+write) accesses
system.cpu.icache.demand_miss_rate::.cpu.inst     0.000069                       # miss rate for demand accesses
system.cpu.icache.demand_miss_rate::total     0.000069                       # miss rate for demand accesses
system.cpu.icache.overall_miss_rate::.cpu.inst     0.000069                       # miss rate for overall accesses
system.cpu.icache.overall_miss_rate::total     0.000069                       # miss rate for overall accesses
system.cpu.icache.demand_avg_miss_latency::.cpu.inst 79441.394659                       # average overall miss latency
system.cpu.icache.demand_avg_miss_latency::total 79441.394659                       # average overall miss latency
system.cpu.icache.overall_avg_miss_latency::.cpu.inst 79441.394659                       # average overall miss latency
system.cpu.icache.overall_avg_miss_latency::total 79441.394659                       # average overall miss latency
system.cpu.icache.blocked_cycles::no_mshrs            0                       # number of cycles access was blocked
system.cpu.icache.blocked_cycles::no_targets            0                       # number of cycles access was blocked
system.cpu.icache.blocked::no_mshrs                 0                       # number of cycles access was blocked
system.cpu.icache.blocked::no_targets               0                       # number of cycles access was blocked
system.cpu.icache.avg_blocked_cycles::no_mshrs          nan                       # average number of cycles each access was blocked
system.cpu.icache.avg_blocked_cycles::no_targets          nan                       # average number of cycles each access was blocked
system.cpu.icache.writebacks::.writebacks          169                       # number of writebacks
system.cpu.icache.writebacks::total               169                       # number of writebacks
system.cpu.icache.demand_mshr_misses::.cpu.inst          674                       # number of demand (read+write) MSHR misses
system.cpu.icache.demand_mshr_misses::total          674                       # number of demand (read+write) MSHR misses
system.cpu.icache.overall_mshr_misses::.cpu.inst          674                       # number of overall MSHR misses
system.cpu.icache.overall_mshr_misses::total          674                       # number of overall MSHR misses
system.cpu.icache.demand_mshr_miss_latency::.cpu.inst     52869500                       # number of demand (read+write) MSHR miss cycles
system.cpu.icache.demand_mshr_miss_latency::total     52869500                       # number of demand (read+write) MSHR miss cycles
system.cpu.icache.overall_mshr_miss_latency::.cpu.inst     52869500                       # number of overall MSHR miss cycles
system.cpu.icache.overall_mshr_miss_latency::total     52869500                       # number of overall MSHR miss cycles
system.cpu.icache.demand_mshr_miss_rate::.cpu.inst     0.000069                       # mshr miss rate for demand accesses
system.cpu.icache.demand_mshr_miss_rate::total     0.000069                       # mshr miss rate for demand accesses
system.cpu.icache.overall_mshr_miss_rate::.cpu.inst     0.000069                       # mshr miss rate for overall accesses
system.cpu.icache.overall_mshr_miss_rate::total     0.000069                       # mshr miss rate for overall accesses
system.cpu.icache.demand_avg_mshr_miss_latency::.cpu.inst 78441.394659                       # average overall mshr miss latency
system.cpu.icache.demand_avg_mshr_miss_latency::total 78441.394659                       # average overall mshr miss latency
system.cpu.icache.overall_avg_mshr_miss_latency::.cpu.inst 78441.394659                       # average overall mshr miss latency
system.cpu.icache.overall_avg_mshr_miss_latency::total 78441.394659                       # average overall mshr miss latency
system.cpu.icache.replacements                    169                       # number of replacements
system.cpu.icache.ReadReq_hits::.cpu.inst      9700262                       # number of ReadReq hits
system.cpu.icache.ReadReq_hits::total         9700262                       # number of ReadReq hits
system.cpu.icache.ReadReq_misses::.cpu.inst          674                       # number of ReadReq misses
system.cpu.icache.ReadReq_misses::total           674                       # number of ReadReq misses
system.cpu.icache.ReadReq_miss_latency::.cpu.inst     53543500                       # number of ReadReq miss cycles
system.cpu.icache.ReadReq_miss_latency::total     53543500                       # number of ReadReq miss cycles
system.cpu.icache.ReadReq_accesses::.cpu.inst      9700936                       # number of ReadReq accesses(hits+misses)
system.cpu.icache.ReadReq_accesses::total      9700936                       # number of ReadReq accesses(hits+misses)
system.cpu.icache.ReadReq_miss_rate::.cpu.inst     0.000069                       # miss rate for ReadReq accesses
system.cpu.icache.ReadReq_miss_rate::total     0.000069                       # miss rate for ReadReq accesses
system.cpu.icache.ReadReq_avg_miss_latency::.cpu.inst 79441.394659                       # average ReadReq miss latency
system.cpu.icache.ReadReq_avg_miss_latency::total 79441.394659                       # average ReadReq miss latency
system.cpu.icache.ReadReq_mshr_misses::.cpu.inst          674                       # number of ReadReq MSHR misses
system.cpu.icache.ReadReq_mshr_misses::total          674                       # number of ReadReq MSHR misses
system.cpu.icache.ReadReq_mshr_miss_latency::.cpu.inst     52869500                       # number of ReadReq MSHR miss cycles
system.cpu.icache.ReadReq_mshr_miss_latency::total     52869500                       # number of ReadReq MSHR miss cycles
system.cpu.icache.ReadReq_mshr_miss_rate::.cpu.inst     0.000069                       # mshr miss rate for ReadReq accesses
system.cpu.icache.ReadReq_mshr_miss_rate::total     0.000069                       # mshr miss rate for ReadReq accesses
system.cpu.icache.ReadReq_avg_mshr_miss_latency::.cpu.inst 78441.394659                       # average ReadReq mshr miss latency
system.cpu.icache.ReadReq_avg_mshr_miss_latency::total 78441.394659                       # average ReadReq mshr miss latency
system.cpu.icache.power_state.pwrStateResidencyTicks::UNDEFINED  83703336000                       # Cumulative time (in ticks) in various power states
system.cpu.icache.tags.tagsinuse           471.698542                       # Cycle average of tags in use
system.cpu.icache.tags.total_refs             9700936                       # Total number of references to valid blocks.
system.cpu.icache.tags.sampled_refs               674                       # Sample count of references to valid blocks.
system.cpu.icache.tags.avg_refs          14393.080119                       # Average number of references to valid blocks.
system.cpu.icache.tags.warmup_cycle             87500                       # Cycle when the warmup percentage was hit.
system.cpu.icache.tags.occ_blocks::.cpu.inst   471.698542                       # Average occupied blocks per requestor
system.cpu.icache.tags.occ_percent::.cpu.inst     0.921286                       # Average percentage of cache occupancy
system.cpu.icache.tags.occ_percent::total     0.921286                       # Average percentage of cache occupancy
system.cpu.icache.tags.occ_task_id_blocks::1024          505                       # Occupied blocks per task id
system.cpu.icache.tags.age_task_id_blocks_1024::3          106                       # Occupied blocks per task id
system.cpu.icache.tags.age_task_id_blocks_1024::4          399                       # Occupied blocks per task id
system.cpu.icache.tags.occ_task_id_percent::1024     0.986328                       # Percentage of cache occupancy per task id
system.cpu.icache.tags.tag_accesses          77608162                       # Number of tag accesses
system.cpu.icache.tags.data_accesses         77608162                       # Number of data accesses
system.cpu.icache.tags.power_state.pwrStateResidencyTicks::UNDEFINED  83703336000                       # Cumulative time (in ticks) in various power states
system.cpu.itb.instHits                             0                       # ITB inst hits
system.cpu.itb.instMisses                           0                       # ITB inst misses
system.cpu.itb.readHits                             0                       # DTB read hits
system.cpu.itb.readMisses                           0                       # DTB read misses
system.cpu.itb.writeHits                            0                       # DTB write hits
system.cpu.itb.writeMisses                          0                       # DTB write misses
system.cpu.itb.inserts                              0                       # Number of times an entry is inserted into the TLB
system.cpu.itb.flushTlb                             0                       # Number of times complete TLB was flushed
system.cpu.itb.flushTlbMva                          0                       # Number of times TLB was flushed by MVA
system.cpu.itb.flushTlbMvaAsid                      0                       # Number of times TLB was flushed by MVA & ASID
system.cpu.itb.flushTlbAsid                         0                       # Number of times TLB was flushed by ASID
system.cpu.itb.flushedEntries                       0                       # Number of entries that have been flushed from TLB
system.cpu.itb.alignFaults                          0                       # Number of TLB faults due to alignment restrictions
system.cpu.itb.prefetchFaults                       0                       # Number of TLB faults due to prefetch
system.cpu.itb.domainFaults                         0                       # Number of TLB faults due to domain restrictions
system.cpu.itb.permsFaults                          0                       # Number of TLB faults due to permissions restrictions
system.cpu.itb.readAccesses                         0                       # DTB read accesses
system.cpu.itb.writeAccesses                        0                       # DTB write accesses
system.cpu.itb.instAccesses                         0                       # ITB inst accesses
system.cpu.itb.hits                                 0                       # Total TLB (inst and data) hits
system.cpu.itb.misses                               0                       # Total TLB (inst and data) misses
system.cpu.itb.accesses                             0                       # Total TLB (inst and data) accesses
system.cpu.itb.stage2_mmu.stage2_tlb.instHits            0                       # ITB inst hits
system.cpu.itb.stage2_mmu.stage2_tlb.instMisses            0                       # ITB inst misses
system.cpu.itb.stage2_mmu.stage2_tlb.readHits            0                       # DTB read hits
system.cpu.itb.stage2_mmu.stage2_tlb.readMisses            0                       # DTB read misses
system.cpu.itb.stage2_mmu.stage2_tlb.writeHits            0                       # DTB write hits
system.cpu.itb.stage2_mmu.stage2_tlb.writeMisses            0                       # DTB write misses
system.cpu.itb.stage2_mmu.stage2_tlb.inserts            0                       # Number of times an entry is inserted into the TLB
system.cpu.itb.stage2_mmu.stage2_tlb.flushTlb            0                       # Number of times complete TLB was flushed
system.cpu.itb.stage2_mmu.stage2_tlb.flushTlbMva            0                       # Number of times TLB was flushed by MVA
system.cpu.itb.stage2_mmu.stage2_tlb.flushTlbMvaAsid            0                       # Number of times TLB was flushed by MVA & ASID
system.cpu.itb.stage2_mmu.stage2_tlb.flushTlbAsid            0                       # Number of times TLB was flushed by ASID
system.cpu.itb.stage2_mmu.stage2_tlb.flushedEntries            0                       # Number of entries that have been flushed from TLB
system.cpu.itb.stage2_mmu.stage2_tlb.alignFaults            0                       # Number of TLB faults due to alignment restrictions
system.cpu.itb.stage2_mmu.stage2_tlb.prefetchFaults            0                       # Number of TLB faults due to prefetch
system.cpu.itb.stage2_mmu.stage2_tlb.domainFaults            0                       # Number of TLB faults due to domain restrictions
system.cpu.itb.stage2_mmu.stage2_tlb.permsFaults            0                       # Number of TLB faults due to permissions restrictions
system.cpu.itb.stage2_mmu.stage2_tlb.readAccesses            0                       # DTB read accesses
system.cpu.itb.stage2_mmu.stage2_tlb.writeAccesses            0                       # DTB write accesses
system.cpu.itb.stage2_mmu.stage2_tlb.instAccesses            0                       # ITB inst accesses
system.cpu.itb.stage2_mmu.stage2_tlb.hits            0                       # Total TLB (inst and data) hits
system.cpu.itb.stage2_mmu.stage2_tlb.misses            0                       # Total TLB (inst and data) misses
system.cpu.itb.stage2_mmu.stage2_tlb.accesses            0                       # Total TLB (inst and data) accesses
system.cpu.itb.stage2_mmu.stage2_tlb.walker.walks            0                       # Table walker walks requested
system.cpu.itb.stage2_mmu.stage2_tlb.walker.requestOrigin_Requested::Data            0                       # Table walker requests started/completed, data/inst
system.cpu.itb.stage2_mmu.stage2_tlb.walker.requestOrigin_Requested::Inst            0                       # Table walker requests started/completed, data/inst
system.cpu.itb.stage2_mmu.stage2_tlb.walker.requestOrigin_Requested::total            0                       # Table walker requests started/completed, data/inst
system.cpu.itb.stage2_mmu.stage2_tlb.walker.requestOrigin_Completed::Data            0                       # Table walker requests started/completed, data/inst
system.cpu.itb.stage2_mmu.stage2_tlb.walker.requestOrigin_Completed::Inst            0                       # Table walker requests started/completed, data/inst
system.cpu.itb.stage2_mmu.stage2_tlb.walker.requestOrigin_Completed::total            0                       # Table walker requests started/completed, data/inst
system.cpu.itb.stage2_mmu.stage2_tlb.walker.requestOrigin::total            0                       # Table walker requests started/completed, data/inst
system.cpu.itb.stage2_mmu.stage2_tlb.walker.power_state.pwrStateResidencyTicks::UNDEFINED  83703336000                       # Cumulative time (in ticks) in various power states
system.cpu.itb.walker.walks                         0                       # Table walker walks requested
system.cpu.itb.walker.requestOrigin_Requested::Data            0                       # Table walker requests started/completed, data/inst
system.cpu.itb.walker.requestOrigin_Requested::Inst            0                       # Table walker requests started/completed, data/inst
system.cpu.itb.walker.requestOrigin_Requested::total            0                       # Table walker requests started/completed, data/inst
system.cpu.itb.walker.requestOrigin_Completed::Data            0                       # Table walker requests started/completed, data/inst
system.cpu.itb.walker.requestOrigin_Completed::Inst            0                       # Table walker requests started/completed, data/inst
system.cpu.itb.walker.requestOrigin_Completed::total            0                       # Table walker requests started/completed, data/inst
system.cpu.itb.walker.requestOrigin::total            0                       # Table walker requests started/completed, data/inst
system.cpu.itb.walker.power_state.pwrStateResidencyTicks::UNDEFINED  83703336000                       # Cumulative time (in ticks) in various power states
system.cpu.power_state.pwrStateResidencyTicks::ON  83703336000                       # Cumulative time (in ticks) in various power states
system.cpu.thread_0.numInsts                100000000                       # Number of Instructions committed
system.cpu.thread_0.numOps                  100196363                       # Number of Ops committed
system.cpu.thread_0.numMemRefs                      0                       # Number of Memory References
system.cpu_clk_domain.clock                       500                       # Clock period in ticks
system.cpu_voltage_domain.voltage                   1                       # Voltage in Volts
system.l2.demand_hits::.cpu.inst                   17                       # number of demand (read+write) hits
system.l2.demand_hits::.cpu.data               481725                       # number of demand (read+write) hits
system.l2.demand_hits::total                   481742                       # number of demand (read+write) hits
system.l2.overall_hits::.cpu.inst                  17                       # number of overall hits
system.l2.overall_hits::.cpu.data              481725                       # number of overall hits
system.l2.overall_hits::total                  481742                       # number of overall hits
system.l2.demand_misses::.cpu.inst                657                       # number of demand (read+write) misses
system.l2.demand_misses::.cpu.data             201173                       # number of demand (read+write) misses
system.l2.demand_misses::total                 201830                       # number of demand (read+write) misses
system.l2.overall_misses::.cpu.inst               657                       # number of overall misses
system.l2.overall_misses::.cpu.data            201173                       # number of overall misses
system.l2.overall_misses::total                201830                       # number of overall misses
system.l2.demand_miss_latency::.cpu.inst     51661500                       # number of demand (read+write) miss cycles
system.l2.demand_miss_latency::.cpu.data  16996290000                       # number of demand (read+write) miss cycles
system.l2.demand_miss_latency::total      17047951500                       # number of demand (read+write) miss cycles
system.l2.overall_miss_latency::.cpu.inst     51661500                       # number of overall miss cycles
system.l2.overall_miss_latency::.cpu.data  16996290000                       # number of overall miss cycles
system.l2.overall_miss_latency::total     17047951500                       # number of overall miss cycles
system.l2.demand_accesses::.cpu.inst              674                       # number of demand (read+write) accesses
system.l2.demand_accesses::.cpu.data           682898                       # number of demand (read+write) accesses
system.l2.demand_accesses::total               683572                       # number of demand (read+write) accesses
system.l2.overall_accesses::.cpu.inst             674                       # number of overall (read+write) accesses
system.l2.overall_accesses::.cpu.data          682898                       # number of overall (read+write) accesses
system.l2.overall_accesses::total              683572                       # number of overall (read+write) accesses
system.l2.demand_miss_rate::.cpu.inst        0.974777                       # miss rate for demand accesses
system.l2.demand_miss_rate::.cpu.data        0.294587                       # miss rate for demand accesses
system.l2.demand_miss_rate::total            0.295258                       # miss rate for demand accesses
system.l2.overall_miss_rate::.cpu.inst       0.974777                       # miss rate for overall accesses
system.l2.overall_miss_rate::.cpu.data       0.294587                       # miss rate for overall accesses
system.l2.overall_miss_rate::total           0.295258                       # miss rate for overall accesses
system.l2.demand_avg_miss_latency::.cpu.inst 78632.420091                       # average overall miss latency
system.l2.demand_avg_miss_latency::.cpu.data 84485.939962                       # average overall miss latency
system.l2.demand_avg_miss_latency::total 84466.885498                       # average overall miss latency
system.l2.overall_avg_miss_latency::.cpu.inst 78632.420091                       # average overall miss latency
system.l2.overall_avg_miss_latency::.cpu.data 84485.939962                       # average overall miss latency
system.l2.overall_avg_miss_latency::total 84466.885498                       # average overall miss latency
system.l2.blocked_cycles::no_mshrs                  0                       # number of cycles access was blocked
system.l2.blocked_cycles::no_targets                0                       # number of cycles access was blocked
system.l2.blocked::no_mshrs                         0                       # number of cycles access was blocked
system.l2.blocked::no_targets                       0                       # number of cycles access was blocked
system.l2.avg_blocked_cycles::no_mshrs            nan                       # average number of cycles each access was blocked
system.l2.avg_blocked_cycles::no_targets          nan                       # average number of cycles each access was blocked
system.l2.writebacks::.writebacks              111113                       # number of writebacks
system.l2.writebacks::total                    111113                       # number of writebacks
system.l2.demand_mshr_hits::.cpu.data               4                       # number of demand (read+write) MSHR hits
system.l2.demand_mshr_hits::total                   4                       # number of demand (read+write) MSHR hits
system.l2.overall_mshr_hits::.cpu.data              4                       # number of overall MSHR hits
system.l2.overall_mshr_hits::total                  4                       # number of overall MSHR hits
system.l2.demand_mshr_misses::.cpu.inst           657                       # number of demand (read+write) MSHR misses
system.l2.demand_mshr_misses::.cpu.data        201169                       # number of demand (read+write) MSHR misses
system.l2.demand_mshr_misses::total            201826                       # number of demand (read+write) MSHR misses
system.l2.overall_mshr_misses::.cpu.inst          657                       # number of overall MSHR misses
system.l2.overall_mshr_misses::.cpu.data       201169                       # number of overall MSHR misses
system.l2.overall_mshr_misses::total           201826                       # number of overall MSHR misses
system.l2.demand_mshr_miss_latency::.cpu.inst     45091500                       # number of demand (read+write) MSHR miss cycles
system.l2.demand_mshr_miss_latency::.cpu.data  14984356000                       # number of demand (read+write) MSHR miss cycles
system.l2.demand_mshr_miss_latency::total  15029447500                       # number of demand (read+write) MSHR miss cycles
system.l2.overall_mshr_miss_latency::.cpu.inst     45091500                       # number of overall MSHR miss cycles
system.l2.overall_mshr_miss_latency::.cpu.data  14984356000                       # number of overall MSHR miss cycles
system.l2.overall_mshr_miss_latency::total  15029447500                       # number of overall MSHR miss cycles
system.l2.demand_mshr_miss_rate::.cpu.inst     0.974777                       # mshr miss rate for demand accesses
system.l2.demand_mshr_miss_rate::.cpu.data     0.294581                       # mshr miss rate for demand accesses
system.l2.demand_mshr_miss_rate::total       0.295252                       # mshr miss rate for demand accesses
system.l2.overall_mshr_miss_rate::.cpu.inst     0.974777                       # mshr miss rate for overall accesses
system.l2.overall_mshr_miss_rate::.cpu.data     0.294581                       # mshr miss rate for overall accesses
system.l2.overall_mshr_miss_rate::total      0.295252                       # mshr miss rate for overall accesses
system.l2.demand_avg_mshr_miss_latency::.cpu.inst 68632.420091                       # average overall mshr miss latency
system.l2.demand_avg_mshr_miss_latency::.cpu.data 74486.406951                       # average overall mshr miss latency
system.l2.demand_avg_mshr_miss_latency::total 74467.350589                       # average overall mshr miss latency
system.l2.overall_avg_mshr_miss_latency::.cpu.inst 68632.420091                       # average overall mshr miss latency
system.l2.overall_avg_mshr_miss_latency::.cpu.data 74486.406951                       # average overall mshr miss latency
system.l2.overall_avg_mshr_miss_latency::total 74467.350589                       # average overall mshr miss latency
system.l2.replacements                         169206                       # number of replacements
system.l2.WritebackDirty_hits::.writebacks       606182                       # number of WritebackDirty hits
system.l2.WritebackDirty_hits::total           606182                       # number of WritebackDirty hits
system.l2.WritebackDirty_accesses::.writebacks       606182                       # number of WritebackDirty accesses(hits+misses)
system.l2.WritebackDirty_accesses::total       606182                       # number of WritebackDirty accesses(hits+misses)
system.l2.WritebackClean_hits::.writebacks          167                       # number of WritebackClean hits
system.l2.WritebackClean_hits::total              167                       # number of WritebackClean hits
system.l2.WritebackClean_accesses::.writebacks          167                       # number of WritebackClean accesses(hits+misses)
system.l2.WritebackClean_accesses::total          167                       # number of WritebackClean accesses(hits+misses)
system.l2.ReadExReq_hits::.cpu.data            150727                       # number of ReadExReq hits
system.l2.ReadExReq_hits::total                150727                       # number of ReadExReq hits
system.l2.ReadExReq_misses::.cpu.data          136102                       # number of ReadExReq misses
system.l2.ReadExReq_misses::total              136102                       # number of ReadExReq misses
system.l2.ReadExReq_miss_latency::.cpu.data  11792739000                       # number of ReadExReq miss cycles
system.l2.ReadExReq_miss_latency::total   11792739000                       # number of ReadExReq miss cycles
system.l2.ReadExReq_accesses::.cpu.data        286829                       # number of ReadExReq accesses(hits+misses)
system.l2.ReadExReq_accesses::total            286829                       # number of ReadExReq accesses(hits+misses)
system.l2.ReadExReq_miss_rate::.cpu.data     0.474506                       # miss rate for ReadExReq accesses
system.l2.ReadExReq_miss_rate::total         0.474506                       # miss rate for ReadExReq accesses
system.l2.ReadExReq_avg_miss_latency::.cpu.data 86646.331428                       # average ReadExReq miss latency
system.l2.ReadExReq_avg_miss_latency::total 86646.331428                       # average ReadExReq miss latency
system.l2.ReadExReq_mshr_misses::.cpu.data       136102                       # number of ReadExReq MSHR misses
system.l2.ReadExReq_mshr_misses::total         136102                       # number of ReadExReq MSHR misses
system.l2.ReadExReq_mshr_miss_latency::.cpu.data  10431719000                       # number of ReadExReq MSHR miss cycles
system.l2.ReadExReq_mshr_miss_latency::total  10431719000                       # number of ReadExReq MSHR miss cycles
system.l2.ReadExReq_mshr_miss_rate::.cpu.data     0.474506                       # mshr miss rate for ReadExReq accesses
system.l2.ReadExReq_mshr_miss_rate::total     0.474506                       # mshr miss rate for ReadExReq accesses
system.l2.ReadExReq_avg_mshr_miss_latency::.cpu.data 76646.331428                       # average ReadExReq mshr miss latency
system.l2.ReadExReq_avg_mshr_miss_latency::total 76646.331428                       # average ReadExReq mshr miss latency
system.l2.ReadCleanReq_hits::.cpu.inst             17                       # number of ReadCleanReq hits
system.l2.ReadCleanReq_hits::total                 17                       # number of ReadCleanReq hits
system.l2.ReadCleanReq_misses::.cpu.inst          657                       # number of ReadCleanReq misses
system.l2.ReadCleanReq_misses::total              657                       # number of ReadCleanReq misses
system.l2.ReadCleanReq_miss_latency::.cpu.inst     51661500                       # number of ReadCleanReq miss cycles
system.l2.ReadCleanReq_miss_latency::total     51661500                       # number of ReadCleanReq miss cycles
system.l2.ReadCleanReq_accesses::.cpu.inst          674                       # number of ReadCleanReq accesses(hits+misses)
system.l2.ReadCleanReq_accesses::total            674                       # number of ReadCleanReq accesses(hits+misses)
system.l2.ReadCleanReq_miss_rate::.cpu.inst     0.974777                       # miss rate for ReadCleanReq accesses
system.l2.ReadCleanReq_miss_rate::total      0.974777                       # miss rate for ReadCleanReq accesses
system.l2.ReadCleanReq_avg_miss_latency::.cpu.inst 78632.420091                       # average ReadCleanReq miss latency
system.l2.ReadCleanReq_avg_miss_latency::total 78632.420091                       # average ReadCleanReq miss latency
system.l2.ReadCleanReq_mshr_misses::.cpu.inst          657                       # number of ReadCleanReq MSHR misses
system.l2.ReadCleanReq_mshr_misses::total          657                       # number of ReadCleanReq MSHR misses
system.l2.ReadCleanReq_mshr_miss_latency::.cpu.inst     45091500                       # number of ReadCleanReq MSHR miss cycles
system.l2.ReadCleanReq_mshr_miss_latency::total     45091500                       # number of ReadCleanReq MSHR miss cycles
system.l2.ReadCleanReq_mshr_miss_rate::.cpu.inst     0.974777                       # mshr miss rate for ReadCleanReq accesses
system.l2.ReadCleanReq_mshr_miss_rate::total     0.974777                       # mshr miss rate for ReadCleanReq accesses
system.l2.ReadCleanReq_avg_mshr_miss_latency::.cpu.inst 68632.420091                       # average ReadCleanReq mshr miss latency
system.l2.ReadCleanReq_avg_mshr_miss_latency::total 68632.420091                       # average ReadCleanReq mshr miss latency
system.l2.ReadSharedReq_hits::.cpu.data        330998                       # number of ReadSharedReq hits
system.l2.ReadSharedReq_hits::total            330998                       # number of ReadSharedReq hits
system.l2.ReadSharedReq_misses::.cpu.data        65071                       # number of ReadSharedReq misses
system.l2.ReadSharedReq_misses::total           65071                       # number of ReadSharedReq misses
system.l2.ReadSharedReq_miss_latency::.cpu.data   5203551000                       # number of ReadSharedReq miss cycles
system.l2.ReadSharedReq_miss_latency::total   5203551000                       # number of ReadSharedReq miss cycles
system.l2.ReadSharedReq_accesses::.cpu.data       396069                       # number of ReadSharedReq accesses(hits+misses)
system.l2.ReadSharedReq_accesses::total        396069                       # number of ReadSharedReq accesses(hits+misses)
system.l2.ReadSharedReq_miss_rate::.cpu.data     0.164292                       # miss rate for ReadSharedReq accesses
system.l2.ReadSharedReq_miss_rate::total     0.164292                       # miss rate for ReadSharedReq accesses
system.l2.ReadSharedReq_avg_miss_latency::.cpu.data 79967.281892                       # average ReadSharedReq miss latency
system.l2.ReadSharedReq_avg_miss_latency::total 79967.281892                       # average ReadSharedReq miss latency
system.l2.ReadSharedReq_mshr_hits::.cpu.data            4                       # number of ReadSharedReq MSHR hits
system.l2.ReadSharedReq_mshr_hits::total            4                       # number of ReadSharedReq MSHR hits
system.l2.ReadSharedReq_mshr_misses::.cpu.data        65067                       # number of ReadSharedReq MSHR misses
system.l2.ReadSharedReq_mshr_misses::total        65067                       # number of ReadSharedReq MSHR misses
system.l2.ReadSharedReq_mshr_miss_latency::.cpu.data   4552637000                       # number of ReadSharedReq MSHR miss cycles
system.l2.ReadSharedReq_mshr_miss_latency::total   4552637000                       # number of ReadSharedReq MSHR miss cycles
system.l2.ReadSharedReq_mshr_miss_rate::.cpu.data     0.164282                       # mshr miss rate for ReadSharedReq accesses
system.l2.ReadSharedReq_mshr_miss_rate::total     0.164282                       # mshr miss rate for ReadSharedReq accesses
system.l2.ReadSharedReq_avg_mshr_miss_latency::.cpu.data 69968.447908                       # average ReadSharedReq mshr miss latency
system.l2.ReadSharedReq_avg_mshr_miss_latency::total 69968.447908                       # average ReadSharedReq mshr miss latency
system.l2.power_state.pwrStateResidencyTicks::UNDEFINED  83703336000                       # Cumulative time (in ticks) in various power states
system.l2.tags.tagsinuse                 31897.868281                       # Cycle average of tags in use
system.l2.tags.total_refs                     1365496                       # Total number of references to valid blocks.
system.l2.tags.sampled_refs                    201974                       # Sample count of references to valid blocks.
system.l2.tags.avg_refs                      6.760751                       # Average number of references to valid blocks.
system.l2.tags.warmup_cycle                     77000                       # Cycle when the warmup percentage was hit.
system.l2.tags.occ_blocks::.writebacks      31.327992                       # Average occupied blocks per requestor
system.l2.tags.occ_blocks::.cpu.inst        77.531499                       # Average occupied blocks per requestor
system.l2.tags.occ_blocks::.cpu.data     31789.008791                       # Average occupied blocks per requestor
system.l2.tags.occ_percent::.writebacks      0.000956                       # Average percentage of cache occupancy
system.l2.tags.occ_percent::.cpu.inst        0.002366                       # Average percentage of cache occupancy
system.l2.tags.occ_percent::.cpu.data        0.970124                       # Average percentage of cache occupancy
system.l2.tags.occ_percent::total            0.973446                       # Average percentage of cache occupancy
system.l2.tags.occ_task_id_blocks::1024         32768                       # Occupied blocks per task id
system.l2.tags.age_task_id_blocks_1024::0           14                       # Occupied blocks per task id
system.l2.tags.age_task_id_blocks_1024::1          137                       # Occupied blocks per task id
system.l2.tags.age_task_id_blocks_1024::2         1169                       # Occupied blocks per task id
system.l2.tags.age_task_id_blocks_1024::3        15840                       # Occupied blocks per task id
system.l2.tags.age_task_id_blocks_1024::4        15608                       # Occupied blocks per task id
system.l2.tags.occ_task_id_percent::1024            1                       # Percentage of cache occupancy per task id
system.l2.tags.tag_accesses                  11125974                       # Number of tag accesses
system.l2.tags.data_accesses                 11125974                       # Number of data accesses
system.l2.tags.power_state.pwrStateResidencyTicks::UNDEFINED  83703336000                       # Cumulative time (in ticks) in various power states
system.mem_ctrls.avgPriority_.writebacks::samples    111113.00                       # Average QoS priority value for accepted requests
system.mem_ctrls.avgPriority_.cpu.inst::samples       657.00                       # Average QoS priority value for accepted requests
system.mem_ctrls.avgPriority_.cpu.data::samples    201130.00                       # Average QoS priority value for accepted requests
system.mem_ctrls.priorityMinLatency      0.000000018750                       # per QoS priority minimum request to response latency (s)
system.mem_ctrls.priorityMaxLatency      0.003617498500                       # per QoS priority maximum request to response latency (s)
system.mem_ctrls.numReadWriteTurnArounds         6652                       # Number of turnarounds from READ to WRITE
system.mem_ctrls.numWriteReadTurnArounds         6652                       # Number of turnarounds from WRITE to READ
system.mem_ctrls.numStayReadState              525427                       # Number of times bus staying in READ state
system.mem_ctrls.numStayWriteState             104588                       # Number of times bus staying in WRITE state
system.mem_ctrls.readReqs                      201826                       # Number of read requests accepted
system.mem_ctrls.writeReqs                     111113                       # Number of write requests accepted
system.mem_ctrls.readBursts                    201826                       # Number of controller read bursts, including those serviced by the write queue
system.mem_ctrls.writeBursts                   111113                       # Number of controller write bursts, including those merged in the write queue
system.mem_ctrls.servicedByWrQ                     39                       # Number of controller read bursts serviced by the write queue
system.mem_ctrls.mergedWrBursts                     0                       # Number of controller write bursts merged with an existing one
system.mem_ctrls.neitherReadNorWriteReqs            0                       # Number of requests that are neither read nor write
system.mem_ctrls.avgRdQLen                       1.08                       # Average read queue length when enqueuing
system.mem_ctrls.avgWrQLen                      24.75                       # Average write queue length when enqueuing
system.mem_ctrls.numRdRetry                         0                       # Number of times read queue was full causing retry
system.mem_ctrls.numWrRetry                         0                       # Number of times write queue was full causing retry
system.mem_ctrls.readPktSize::0                     0                       # Read request sizes (log2)
system.mem_ctrls.readPktSize::1                     0                       # Read request sizes (log2)
system.mem_ctrls.readPktSize::2                     0                       # Read request sizes (log2)
system.mem_ctrls.readPktSize::3                     0                       # Read request sizes (log2)
system.mem_ctrls.readPktSize::4                     0                       # Read request sizes (log2)
system.mem_ctrls.readPktSize::5                     0                       # Read request sizes (log2)
system.mem_ctrls.readPktSize::6                201826                       # Read request sizes (log2)
system.mem_ctrls.writePktSize::0                    0                       # Write request sizes (log2)
system.mem_ctrls.writePktSize::1                    0                       # Write request sizes (log2)
system.mem_ctrls.writePktSize::2                    0                       # Write request sizes (log2)
system.mem_ctrls.writePktSize::3                    0                       # Write request sizes (log2)
system.mem_ctrls.writePktSize::4                    0                       # Write request sizes (log2)
system.mem_ctrls.writePktSize::5                    0                       # Write request sizes (log2)
system.mem_ctrls.writePktSize::6               111113                       # Write request sizes (log2)
system.mem_ctrls.rdQLenPdf::0                  140644                       # What read queue length does an incoming req see
system.mem_ctrls.rdQLenPdf::1                   58406                       # What read queue length does an incoming req see
system.mem_ctrls.rdQLenPdf::2                    2397                       # What read queue length does an incoming req see
system.mem_ctrls.rdQLenPdf::3                     339                       # What read queue length does an incoming req see
system.mem_ctrls.rdQLenPdf::4                       1                       # What read queue length does an incoming req see
system.mem_ctrls.rdQLenPdf::5                       0                       # What read queue length does an incoming req see
system.mem_ctrls.rdQLenPdf::6                       0                       # What read queue length does an incoming req see
system.mem_ctrls.rdQLenPdf::7                       0                       # What read queue length does an incoming req see
system.mem_ctrls.rdQLenPdf::8                       0                       # What read queue length does an incoming req see
system.mem_ctrls.rdQLenPdf::9                       0                       # What read queue length does an incoming req see
system.mem_ctrls.rdQLenPdf::10                      0                       # What read queue length does an incoming req see
[...]
system.mem_ctrls.dram.bw_write::.writebacks     84957570                       # Write bandwidth from this memory (bytes/s)
system.mem_ctrls.dram.bw_write::total        84957570                       # Write bandwidth from this memory (bytes/s)
system.mem_ctrls.dram.bw_total::.writebacks     84957570                       # Total bandwidth to/from this memory (bytes/s)
system.mem_ctrls.dram.bw_total::.cpu.inst       502346                       # Total bandwidth to/from this memory (bytes/s)
system.mem_ctrls.dram.bw_total::.cpu.data    153814849                       # Total bandwidth to/from this memory (bytes/s)
system.mem_ctrls.dram.bw_total::total       239274764                       # Total bandwidth to/from this memory (bytes/s)
system.mem_ctrls.dram.readBursts               201787                       # Number of DRAM read bursts
system.mem_ctrls.dram.writeBursts              111085                       # Number of DRAM write bursts
system.mem_ctrls.dram.perBankRdBursts::0        12882                       # Per bank write bursts
system.mem_ctrls.dram.perBankRdBursts::1        12814                       # Per bank write bursts
system.mem_ctrls.dram.perBankRdBursts::2        12758                       # Per bank write bursts
system.mem_ctrls.dram.perBankRdBursts::3        12496                       # Per bank write bursts
system.mem_ctrls.dram.perBankRdBursts::4        12521                       # Per bank write bursts
system.mem_ctrls.dram.perBankRdBursts::5        12471                       # Per bank write bursts
system.mem_ctrls.dram.perBankRdBursts::6        12471                       # Per bank write bursts
system.mem_ctrls.dram.perBankRdBursts::7        12478                       # Per bank write bursts
system.mem_ctrls.dram.perBankRdBursts::8        12198                       # Per bank write bursts
system.mem_ctrls.dram.perBankRdBursts::9        12333                       # Per bank write bursts
system.mem_ctrls.dram.perBankRdBursts::10        12635                       # Per bank write bursts
system.mem_ctrls.dram.perBankRdBursts::11        12752                       # Per bank write bursts
system.mem_ctrls.dram.perBankRdBursts::12        12727                       # Per bank write bursts
system.mem_ctrls.dram.perBankRdBursts::13        12831                       # Per bank write bursts
system.mem_ctrls.dram.perBankRdBursts::14        12698                       # Per bank write bursts
system.mem_ctrls.dram.perBankRdBursts::15        12722                       # Per bank write bursts
system.mem_ctrls.dram.perBankWrBursts::0         7077                       # Per bank write bursts
system.mem_ctrls.dram.perBankWrBursts::1         7122                       # Per bank write bursts
system.mem_ctrls.dram.perBankWrBursts::2         7069                       # Per bank write bursts
system.mem_ctrls.dram.perBankWrBursts::3         6914                       # Per bank write bursts
system.mem_ctrls.dram.perBankWrBursts::4         7010                       # Per bank write bursts
system.mem_ctrls.dram.perBankWrBursts::5         7054                       # Per bank write bursts
system.mem_ctrls.dram.perBankWrBursts::6         6997                       # Per bank write bursts
system.mem_ctrls.dram.perBankWrBursts::7         6806                       # Per bank write bursts
system.mem_ctrls.dram.perBankWrBursts::8         6558                       # Per bank write bursts
system.mem_ctrls.dram.perBankWrBursts::9         6715                       # Per bank write bursts
system.mem_ctrls.dram.perBankWrBursts::10         6896                       # Per bank write bursts
system.mem_ctrls.dram.perBankWrBursts::11         6993                       # Per bank write bursts
system.mem_ctrls.dram.perBankWrBursts::12         6950                       # Per bank write bursts
system.mem_ctrls.dram.perBankWrBursts::13         6966                       # Per bank write bursts
system.mem_ctrls.dram.perBankWrBursts::14         6956                       # Per bank write bursts
system.mem_ctrls.dram.perBankWrBursts::15         7002                       # Per bank write bursts
system.mem_ctrls.dram.totQLat              2925344250                       # Total ticks spent queuing
system.mem_ctrls.dram.totBusLat            1008935000                       # Total ticks spent in databus transfers
system.mem_ctrls.dram.totMemAccLat         6708850500                       # Total ticks spent from burst creation until serviced by the DRAM
system.mem_ctrls.dram.avgQLat                14497.19                       # Average queueing delay per DRAM burst
system.mem_ctrls.dram.avgBusLat               5000.00                       # Average bus latency per DRAM burst
system.mem_ctrls.dram.avgMemAccLat           33247.19                       # Average memory access latency per DRAM burst
system.mem_ctrls.dram.readRowHits              138899                       # Number of row buffer hits during reads
system.mem_ctrls.dram.writeRowHits              70228                       # Number of row buffer hits during writes
system.mem_ctrls.dram.readRowHitRate            68.83                       # Row buffer hit rate for reads
system.mem_ctrls.dram.writeRowHitRate           63.22                       # Row buffer hit rate for writes
system.mem_ctrls.dram.bytesPerActivate::samples       103738                       # Bytes accessed per row activation
system.mem_ctrls.dram.bytesPerActivate::mean   193.017949                       # Bytes accessed per row activation
system.mem_ctrls.dram.bytesPerActivate::gmean   112.430267                       # Bytes accessed per row activation
system.mem_ctrls.dram.bytesPerActivate::stdev   257.981956                       # Bytes accessed per row activation
system.mem_ctrls.dram.bytesPerActivate::0-127        67880     65.43%     65.43% # Bytes accessed per row activation
system.mem_ctrls.dram.bytesPerActivate::128-255        14777     14.24%     79.68% # Bytes accessed per row activation
system.mem_ctrls.dram.bytesPerActivate::256-383         2457      2.37%     82.05% # Bytes accessed per row activation
system.mem_ctrls.dram.bytesPerActivate::384-511         1432      1.38%     83.43% # Bytes accessed per row activation
system.mem_ctrls.dram.bytesPerActivate::512-639         9459      9.12%     92.55% # Bytes accessed per row activation
system.mem_ctrls.dram.bytesPerActivate::640-767          986      0.95%     93.50% # Bytes accessed per row activation
system.mem_ctrls.dram.bytesPerActivate::768-895          514      0.50%     93.99% # Bytes accessed per row activation
system.mem_ctrls.dram.bytesPerActivate::896-1023          531      0.51%     94.50% # Bytes accessed per row activation
system.mem_ctrls.dram.bytesPerActivate::1024-1151         5702      5.50%    100.00% # Bytes accessed per row activation
system.mem_ctrls.dram.bytesPerActivate::total       103738                       # Bytes accessed per row activation
system.mem_ctrls.dram.bytesRead              12914368                       # Total number of bytes read from DRAM
system.mem_ctrls.dram.bytesWritten            7109440                       # Total number of bytes written to DRAM
system.mem_ctrls.dram.avgRdBW              154.287375                       # Average DRAM read bandwidth in MiBytes/s
system.mem_ctrls.dram.avgWrBW               84.936161                       # Average DRAM write bandwidth in MiBytes/s
system.mem_ctrls.dram.peakBW                 12800.00                       # Theoretical peak bandwidth in MiByte/s
system.mem_ctrls.dram.busUtil                    1.87                       # Data bus utilization in percentage
system.mem_ctrls.dram.busUtilRead                1.21                       # Data bus utilization in percentage for reads
system.mem_ctrls.dram.busUtilWrite               0.66                       # Data bus utilization in percentage for writes
system.mem_ctrls.dram.pageHitRate               66.84                       # Row buffer hit rate, read and write combined
system.mem_ctrls.dram.power_state.pwrStateResidencyTicks::UNDEFINED  83703336000                       # Cumulative time (in ticks) in various power states
system.mem_ctrls.dram.rank0.actEnergy       373393440                       # Energy for activate commands per rank (pJ)
system.mem_ctrls.dram.rank0.preEnergy       198451935                       # Energy for precharge commands per rank (pJ)
system.mem_ctrls.dram.rank0.readEnergy      720361740                       # Energy for read commands per rank (pJ)
system.mem_ctrls.dram.rank0.writeEnergy     292575780                       # Energy for write commands per rank (pJ)
system.mem_ctrls.dram.rank0.refreshEnergy 6607380000.000001                       # Energy for refresh commands per rank (pJ)
system.mem_ctrls.dram.rank0.actBackEnergy  21540305700                       # Energy for active background per rank (pJ)
system.mem_ctrls.dram.rank0.preBackEnergy  14002876320                       # Energy for precharge background per rank (pJ)
system.mem_ctrls.dram.rank0.actPowerDownEnergy            0                       # Energy for active power-down per rank (pJ)
system.mem_ctrls.dram.rank0.prePowerDownEnergy            0                       # Energy for precharge power-down per rank (pJ)
system.mem_ctrls.dram.rank0.selfRefreshEnergy            0                       # Energy for self refresh per rank (pJ)
system.mem_ctrls.dram.rank0.totalEnergy   43735344915                       # Total energy per rank (pJ)
system.mem_ctrls.dram.rank0.averagePower   522.504204                       # Core power per rank (mW)
system.mem_ctrls.dram.rank0.totalIdleTime            0                       # Total Idle time Per DRAM Rank
system.mem_ctrls.dram.rank0.pwrStateTime::IDLE  36184256750                       # Time in different power states
system.mem_ctrls.dram.rank0.pwrStateTime::REF   2795000000                       # Time in different power states
system.mem_ctrls.dram.rank0.pwrStateTime::SREF            0                       # Time in different power states
system.mem_ctrls.dram.rank0.pwrStateTime::PRE_PDN            0                       # Time in different power states
system.mem_ctrls.dram.rank0.pwrStateTime::ACT  44724079250                       # Time in different power states
system.mem_ctrls.dram.rank0.pwrStateTime::ACT_PDN            0                       # Time in different power states
system.mem_ctrls.dram.rank1.actEnergy       367345860                       # Energy for activate commands per rank (pJ)
system.mem_ctrls.dram.rank1.preEnergy       195233775                       # Energy for precharge commands per rank (pJ)
system.mem_ctrls.dram.rank1.readEnergy      720397440                       # Energy for read commands per rank (pJ)
system.mem_ctrls.dram.rank1.writeEnergy     287287920                       # Energy for write commands per rank (pJ)
system.mem_ctrls.dram.rank1.refreshEnergy 6607380000.000001                       # Energy for refresh commands per rank (pJ)
system.mem_ctrls.dram.rank1.actBackEnergy  21459348600                       # Energy for active background per rank (pJ)
system.mem_ctrls.dram.rank1.preBackEnergy  14071050720                       # Energy for precharge background per rank (pJ)
system.mem_ctrls.dram.rank1.actPowerDownEnergy            0                       # Energy for active power-down per rank (pJ)
system.mem_ctrls.dram.rank1.prePowerDownEnergy            0                       # Energy for precharge power-down per rank (pJ)
system.mem_ctrls.dram.rank1.selfRefreshEnergy            0                       # Energy for self refresh per rank (pJ)
system.mem_ctrls.dram.rank1.totalEnergy   43708044315                       # Total energy per rank (pJ)
system.mem_ctrls.dram.rank1.averagePower   522.178045                       # Core power per rank (mW)
system.mem_ctrls.dram.rank1.totalIdleTime            0                       # Total Idle time Per DRAM Rank
system.mem_ctrls.dram.rank1.pwrStateTime::IDLE  36361075500                       # Time in different power states
system.mem_ctrls.dram.rank1.pwrStateTime::REF   2795000000                       # Time in different power states
system.mem_ctrls.dram.rank1.pwrStateTime::SREF            0                       # Time in different power states
system.mem_ctrls.dram.rank1.pwrStateTime::PRE_PDN            0                       # Time in different power states
system.mem_ctrls.dram.rank1.pwrStateTime::ACT  44547260500                       # Time in different power states
system.mem_ctrls.dram.rank1.pwrStateTime::ACT_PDN            0                       # Time in different power states
system.mem_ctrls.power_state.pwrStateResidencyTicks::UNDEFINED  83703336000                       # Cumulative time (in ticks) in various power states
system.membus.trans_dist::ReadResp              65724                       # Transaction distribution
system.membus.trans_dist::WritebackDirty       111113                       # Transaction distribution
system.membus.trans_dist::CleanEvict            57540                       # Transaction distribution
system.membus.trans_dist::ReadExReq            136102                       # Transaction distribution
system.membus.trans_dist::ReadExResp           136102                       # Transaction distribution
system.membus.trans_dist::ReadSharedReq         65724                       # Transaction distribution
system.membus.pkt_count_system.l2.mem_side_port::system.mem_ctrls.port       572305                       # Packet count per connected requestor and responder (bytes)
system.membus.pkt_count::total                 572305                       # Packet count per connected requestor and responder (bytes)
system.membus.pkt_size_system.l2.mem_side_port::system.mem_ctrls.port     20028096                       # Cumulative packet size per connected requestor and responder (bytes)
system.membus.pkt_size::total                20028096                       # Cumulative packet size per connected requestor and responder (bytes)
system.membus.snoops                                0                       # Total snoops (count)
system.membus.snoopTraffic                          0                       # Total snoop traffic (bytes)
system.membus.snoop_fanout::samples            201826                       # Request fanout histogram
system.membus.snoop_fanout::mean                    0                       # Request fanout histogram
system.membus.snoop_fanout::stdev                   0                       # Request fanout histogram
system.membus.snoop_fanout::underflows              0      0.00%      0.00% # Request fanout histogram
system.membus.snoop_fanout::0                  201826    100.00%    100.00% # Request fanout histogram
system.membus.snoop_fanout::1                       0      0.00%    100.00% # Request fanout histogram
system.membus.snoop_fanout::overflows               0      0.00%    100.00% # Request fanout histogram
system.membus.snoop_fanout::min_value               0                       # Request fanout histogram
system.membus.snoop_fanout::max_value               0                       # Request fanout histogram
system.membus.snoop_fanout::total              201826                       # Request fanout histogram
system.membus.power_state.pwrStateResidencyTicks::UNDEFINED  83703336000                       # Cumulative time (in ticks) in various power states
system.membus.reqLayer0.occupancy           853867500                       # Layer occupancy (ticks)
system.membus.reqLayer0.utilization               1.0                       # Layer utilization (%)
system.membus.respLayer1.occupancy         1087107750                       # Layer occupancy (ticks)
system.membus.respLayer1.utilization              1.3                       # Layer utilization (%)
system.tol2bus.trans_dist::ReadResp            396743                       # Transaction distribution
system.tol2bus.trans_dist::WritebackDirty       717295                       # Transaction distribution
system.tol2bus.trans_dist::WritebackClean          169                       # Transaction distribution
system.tol2bus.trans_dist::CleanEvict          133785                       # Transaction distribution
system.tol2bus.trans_dist::ReadExReq           286829                       # Transaction distribution
system.tol2bus.trans_dist::ReadExResp          286829                       # Transaction distribution
system.tol2bus.trans_dist::ReadCleanReq           674                       # Transaction distribution
system.tol2bus.trans_dist::ReadSharedReq       396069                       # Transaction distribution
system.tol2bus.pkt_count_system.cpu.icache.mem_side_port::system.l2.cpu_side_port         1517                       # Packet count per connected requestor and responder (bytes)
system.tol2bus.pkt_count_system.cpu.dcache.mem_side_port::system.l2.cpu_side_port      2047670                       # Packet count per connected requestor and responder (bytes)
system.tol2bus.pkt_count::total               2049187                       # Packet count per connected requestor and responder (bytes)
system.tol2bus.pkt_size_system.cpu.icache.mem_side_port::system.l2.cpu_side_port        53952                       # Cumulative packet size per connected requestor and responder (bytes)
system.tol2bus.pkt_size_system.cpu.dcache.mem_side_port::system.l2.cpu_side_port     82501120                       # Cumulative packet size per connected requestor and responder (bytes)
system.tol2bus.pkt_size::total               82555072                       # Cumulative packet size per connected requestor and responder (bytes)
system.tol2bus.snoops                          169206                       # Total snoops (count)
system.tol2bus.snoopTraffic                   7111232                       # Total snoop traffic (bytes)
system.tol2bus.snoop_fanout::samples           852778                       # Request fanout histogram
system.tol2bus.snoop_fanout::mean            0.000786                       # Request fanout histogram
system.tol2bus.snoop_fanout::stdev           0.028019                       # Request fanout histogram
system.tol2bus.snoop_fanout::underflows             0      0.00%      0.00% # Request fanout histogram
system.tol2bus.snoop_fanout::0                 852108     99.92%     99.92% # Request fanout histogram
system.tol2bus.snoop_fanout::1                    670      0.08%    100.00% # Request fanout histogram
system.tol2bus.snoop_fanout::2                      0      0.00%    100.00% # Request fanout histogram
system.tol2bus.snoop_fanout::overflows              0      0.00%    100.00% # Request fanout histogram
system.tol2bus.snoop_fanout::min_value              0                       # Request fanout histogram
system.tol2bus.snoop_fanout::max_value              1                       # Request fanout histogram
system.tol2bus.snoop_fanout::total             852778                       # Request fanout histogram
system.tol2bus.power_state.pwrStateResidencyTicks::UNDEFINED  83703336000                       # Cumulative time (in ticks) in various power states
system.tol2bus.reqLayer0.occupancy         1289158500                       # Layer occupancy (ticks)
system.tol2bus.reqLayer0.utilization              1.5                       # Layer utilization (%)
system.tol2bus.respLayer0.occupancy           1011000                       # Layer occupancy (ticks)
system.tol2bus.respLayer0.utilization             0.0                       # Layer utilization (%)
system.tol2bus.respLayer1.occupancy        1024348996                       # Layer occupancy (ticks)
system.tol2bus.respLayer1.utilization             1.2                       # Layer utilization (%)
system.voltage_domain.voltage                       1                       # Voltage in Volts

---------- End Simulation Statistics   ----------
