
---------- Begin Simulation Statistics ----------
final_tick                                57756929000                       # Number of ticks from beginning of simulation (restored from checkpoints and never reset)
host_inst_rate                                 151527                       # Simulator instruction rate (inst/s)
host_mem_usage                                 668860                       # Number of bytes of host memory used
host_op_rate                                   165818                       # Simulator op (including micro ops) rate (op/s)
host_seconds                                   659.95                       # Real time elapsed on the host
host_tick_rate                               87517067                       # Simulator tick rate (ticks/s)
sim_freq                                 1000000000000                       # Frequency of simulated ticks
sim_insts                                   100000000                       # Number of instructions simulated
sim_ops                                     109431867                       # Number of ops (including micro ops) simulated
sim_seconds                                  0.057757                       # Number of seconds simulated
sim_ticks                                 57756929000                       # Number of ticks simulated
system.cpu.committedInsts                   100000000                       # Number of instructions committed
system.cpu.committedOps                     109431867                       # Number of ops (including micro ops) committed
system.cpu.cpi                               1.155139                       # CPI: cycles per instruction
system.cpu.discardedOps                        729522                       # Number of ops (including micro ops) which were discarded before commit
system.cpu.idleCycles                         3926423                       # Total number of cycles that the object has spent stopped
system.cpu.ipc                               0.865697                       # IPC: instructions per cycle
system.cpu.numCycles                        115513858                       # number of cpu cycles simulated
system.cpu.numFetchSuspends                         0                       # Number of times Execute suspended instruction fetching
system.cpu.numWorkItemsCompleted                    0                       # number of work items this cpu completed
system.cpu.numWorkItemsStarted                      0                       # number of work items this cpu started
system.cpu.op_class_0::No_OpClass                   0      0.00%      0.00% # Class of committed instruction
system.cpu.op_class_0::IntAlu                72954855     66.67%     66.67% # Class of committed instruction
system.cpu.op_class_0::IntMult                 568365      0.52%     67.19% # Class of committed instruction
system.cpu.op_class_0::IntDiv                       0      0.00%     67.19% # Class of committed instruction
system.cpu.op_class_0::FloatAdd                     0      0.00%     67.19% # Class of committed instruction
system.cpu.op_class_0::FloatCmp                     0      0.00%     67.19% # Class of committed instruction
system.cpu.op_class_0::FloatCvt                     0      0.00%     67.19% # Class of committed instruction
system.cpu.op_class_0::FloatMult                    0      0.00%     67.19% # Class of committed instruction
system.cpu.op_class_0::FloatMultAcc                 0      0.00%     67.19% # Class of committed instruction
system.cpu.op_class_0::FloatDiv                     0      0.00%     67.19% # Class of committed instruction
system.cpu.op_class_0::FloatMisc                    0      0.00%     67.19% # Class of committed instruction
system.cpu.op_class_0::FloatSqrt                    0      0.00%     67.19% # Class of committed instruction
system.cpu.op_class_0::SimdAdd                 241252      0.22%     67.41% # Class of committed instruction
system.cpu.op_class_0::SimdAddAcc                   0      0.00%     67.41% # Class of committed instruction
system.cpu.op_class_0::SimdAlu                 154720      0.14%     67.55% # Class of committed instruction
system.cpu.op_class_0::SimdCmp                 120626      0.11%     67.66% # Class of committed instruction
system.cpu.op_class_0::SimdCvt                      0      0.00%     67.66% # Class of committed instruction
system.cpu.op_class_0::SimdMisc                 44544      0.04%     67.70% # Class of committed instruction
system.cpu.op_class_0::SimdMult                     0      0.00%     67.70% # Class of committed instruction
system.cpu.op_class_0::SimdMultAcc                  0      0.00%     67.70% # Class of committed instruction
system.cpu.op_class_0::SimdShift                    0      0.00%     67.70% # Class of committed instruction
system.cpu.op_class_0::SimdShiftAcc                 0      0.00%     67.70% # Class of committed instruction
system.cpu.op_class_0::SimdDiv                      0      0.00%     67.70% # Class of committed instruction
system.cpu.op_class_0::SimdSqrt                     0      0.00%     67.70% # Class of committed instruction
system.cpu.op_class_0::SimdFloatAdd                 0      0.00%     67.70% # Class of committed instruction
system.cpu.op_class_0::SimdFloatAlu                 0      0.00%     67.70% # Class of committed instruction
system.cpu.op_class_0::SimdFloatCmp                 0      0.00%     67.70% # Class of committed instruction
system.cpu.op_class_0::SimdFloatCvt                 0      0.00%     67.70% # Class of committed instruction
system.cpu.op_class_0::SimdFloatDiv                 0      0.00%     67.70% # Class of committed instruction
system.cpu.op_class_0::SimdFloatMisc           166465      0.15%     67.85% # Class of committed instruction
system.cpu.op_class_0::SimdFloatMult                0      0.00%     67.85% # Class of committed instruction
system.cpu.op_class_0::SimdFloatMultAcc             0      0.00%     67.85% # Class of committed instruction
system.cpu.op_class_0::SimdFloatSqrt                0      0.00%     67.85% # Class of committed instruction
system.cpu.op_class_0::SimdReduceAdd                0      0.00%     67.85% # Class of committed instruction
system.cpu.op_class_0::SimdReduceAlu                0      0.00%     67.85% # Class of committed instruction
system.cpu.op_class_0::SimdReduceCmp                0      0.00%     67.85% # Class of committed instruction
system.cpu.op_class_0::SimdFloatReduceAdd            0      0.00%     67.85% # Class of committed instruction
system.cpu.op_class_0::SimdFloatReduceCmp            0      0.00%     67.85% # Class of committed instruction
system.cpu.op_class_0::SimdAes                      0      0.00%     67.85% # Class of committed instruction
system.cpu.op_class_0::SimdAesMix                   0      0.00%     67.85% # Class of committed instruction
system.cpu.op_class_0::SimdSha1Hash                 0      0.00%     67.85% # Class of committed instruction
system.cpu.op_class_0::SimdSha1Hash2                0      0.00%     67.85% # Class of committed instruction
system.cpu.op_class_0::SimdSha256Hash               0      0.00%     67.85% # Class of committed instruction
system.cpu.op_class_0::SimdSha256Hash2              0      0.00%     67.85% # Class of committed instruction
system.cpu.op_class_0::SimdShaSigma2                0      0.00%     67.85% # Class of committed instruction
system.cpu.op_class_0::SimdShaSigma3                0      0.00%     67.85% # Class of committed instruction
system.cpu.op_class_0::SimdPredAlu                  0      0.00%     67.85% # Class of committed instruction
system.cpu.op_class_0::MemRead               20646356     18.87%     86.72% # Class of committed instruction
system.cpu.op_class_0::MemWrite              14534684     13.28%    100.00% # Class of committed instruction
system.cpu.op_class_0::FloatMemRead                 0      0.00%    100.00% # Class of committed instruction
system.cpu.op_class_0::FloatMemWrite                0      0.00%    100.00% # Class of committed instruction
system.cpu.op_class_0::IprAccess                    0      0.00%    100.00% # Class of committed instruction
system.cpu.op_class_0::InstPrefetch                 0      0.00%    100.00% # Class of committed instruction
system.cpu.op_class_0::total                109431867                       # Class of committed instruction
system.cpu.tickCycles                       111587435                       # Number of cycles that the object actually ticked
system.cpu.workload.numSyscalls                    86                       # Number of system calls
system.membus.snoop_filter.hit_multi_requests            0                       # Number of requests hitting in the snoop filter with multiple (>1) holders of the requested data.
system.membus.snoop_filter.hit_multi_snoops            0                       # Number of snoops hitting in the snoop filter with multiple (>1) holders of the requested data.
system.membus.snoop_filter.hit_single_requests         6601                       # Number of requests hitting in the snoop filter with a single holder of the requested data.
system.membus.snoop_filter.hit_single_snoops            0                       # Number of snoops hitting in the snoop filter with a single holder of the requested data.
system.membus.snoop_filter.tot_requests         46446                       # Total number of requests made to the snoop filter.
system.membus.snoop_filter.tot_snoops               0                       # Total number of snoops made to the snoop filter.
system.tol2bus.snoop_filter.hit_multi_requests           24                       # Number of requests hitting in the snoop filter with multiple (>1) holders of the requested data.
system.tol2bus.snoop_filter.hit_multi_snoops            3                       # Number of snoops hitting in the snoop filter with multiple (>1) holders of the requested data.
system.tol2bus.snoop_filter.hit_single_requests        53720                       # Number of requests hitting in the snoop filter with a single holder of the requested data.
system.tol2bus.snoop_filter.hit_single_snoops          478                       # Number of snoops hitting in the snoop filter with a single holder of the requested data.
system.tol2bus.snoop_filter.tot_requests       108918                       # Total number of requests made to the snoop filter.
system.tol2bus.snoop_filter.tot_snoops            481                       # Total number of snoops made to the snoop filter.
system.clk_domain.clock                          1000                       # Clock period in ticks
system.cpu.branchPred.lookups                20634649                       # Number of BP lookups
system.cpu.branchPred.condPredicted          16527159                       # Number of conditional branches predicted
system.cpu.branchPred.condIncorrect            153918                       # Number of conditional branches incorrect
system.cpu.branchPred.BTBLookups              8837466                       # Number of BTB lookups
system.cpu.branchPred.BTBHits                 8746825                       # Number of BTB hits
system.cpu.branchPred.BTBHitPct             98.974355                       # BTB Hit Percentage
system.cpu.branchPred.RASUsed                 1050604                       # Number of times the RAS was used to get a target.
system.cpu.branchPred.RASIncorrect                313                       # Number of incorrect RAS predictions.
system.cpu.branchPred.indirectLookups          433998                       # Number of indirect predictor lookups.
system.cpu.branchPred.indirectHits             300037                       # Number of indirect target hits.
system.cpu.branchPred.indirectMisses           133961                       # Number of indirect misses.
system.cpu.branchPred.indirectMispredicted         1206                       # Number of mispredicted indirect branches.
system.cpu.dcache.demand_hits::.cpu.data     35663060                       # number of demand (read+write) hits
system.cpu.dcache.demand_hits::total         35663060                       # number of demand (read+write) hits
system.cpu.dcache.overall_hits::.cpu.data     35666378                       # number of overall hits
system.cpu.dcache.overall_hits::total        35666378                       # number of overall hits
system.cpu.dcache.demand_misses::.cpu.data        74244                       # number of demand (read+write) misses
system.cpu.dcache.demand_misses::total          74244                       # number of demand (read+write) misses
system.cpu.dcache.overall_misses::.cpu.data        74287                       # number of overall misses
system.cpu.dcache.overall_misses::total         74287                       # number of overall misses
system.cpu.dcache.demand_miss_latency::.cpu.data   4432089500                       # number of demand (read+write) miss cycles
system.cpu.dcache.demand_miss_latency::total   4432089500                       # number of demand (read+write) miss cycles
system.cpu.dcache.overall_miss_latency::.cpu.data   4432089500                       # number of overall miss cycles
system.cpu.dcache.overall_miss_latency::total   4432089500                       # number of overall miss cycles
system.cpu.dcache.demand_accesses::.cpu.data     35737304                       # number of demand (read+write) accesses
system.cpu.dcache.demand_accesses::total     35737304                       # number of demand (read+write) accesses
system.cpu.dcache.overall_accesses::.cpu.data     35740665                       # number of overall (read+write) accesses
system.cpu.dcache.overall_accesses::total     35740665                       # number of overall (read+write) accesses
system.cpu.dcache.demand_miss_rate::.cpu.data     0.002077                       # miss rate for demand accesses
system.cpu.dcache.demand_miss_rate::total     0.002077                       # miss rate for demand accesses
system.cpu.dcache.overall_miss_rate::.cpu.data     0.002079                       # miss rate for overall accesses
system.cpu.dcache.overall_miss_rate::total     0.002079                       # miss rate for overall accesses
system.cpu.dcache.demand_avg_miss_latency::.cpu.data 59696.265018                       # average overall miss latency
system.cpu.dcache.demand_avg_miss_latency::total 59696.265018                       # average overall miss latency
system.cpu.dcache.overall_avg_miss_latency::.cpu.data 59661.710663                       # average overall miss latency
system.cpu.dcache.overall_avg_miss_latency::total 59661.710663                       # average overall miss latency
system.cpu.dcache.blocked_cycles::no_mshrs            0                       # number of cycles access was blocked
system.cpu.dcache.blocked_cycles::no_targets            0                       # number of cycles access was blocked
system.cpu.dcache.blocked::no_mshrs                 0                       # number of cycles access was blocked
system.cpu.dcache.blocked::no_targets               0                       # number of cycles access was blocked
system.cpu.dcache.avg_blocked_cycles::no_mshrs          nan                       # average number of cycles each access was blocked
system.cpu.dcache.avg_blocked_cycles::no_targets          nan                       # average number of cycles each access was blocked
system.cpu.dcache.writebacks::.writebacks        50228                       # number of writebacks
system.cpu.dcache.writebacks::total             50228                       # number of writebacks
system.cpu.dcache.demand_mshr_hits::.cpu.data        19605                       # number of demand (read+write) MSHR hits
system.cpu.dcache.demand_mshr_hits::total        19605                       # number of demand (read+write) MSHR hits
system.cpu.dcache.overall_mshr_hits::.cpu.data        19605                       # number of overall MSHR hits
system.cpu.dcache.overall_mshr_hits::total        19605                       # number of overall MSHR hits
system.cpu.dcache.demand_mshr_misses::.cpu.data        54639                       # number of demand (read+write) MSHR misses
system.cpu.dcache.demand_mshr_misses::total        54639                       # number of demand (read+write) MSHR misses
system.cpu.dcache.overall_mshr_misses::.cpu.data        54676                       # number of overall MSHR misses
system.cpu.dcache.overall_mshr_misses::total        54676                       # number of overall MSHR misses
system.cpu.dcache.demand_mshr_miss_latency::.cpu.data   3308205500                       # number of demand (read+write) MSHR miss cycles
system.cpu.dcache.demand_mshr_miss_latency::total   3308205500                       # number of demand (read+write) MSHR miss cycles
system.cpu.dcache.overall_mshr_miss_latency::.cpu.data   3309506500                       # number of overall MSHR miss cycles
system.cpu.dcache.overall_mshr_miss_latency::total   3309506500                       # number of overall MSHR miss cycles
system.cpu.dcache.demand_mshr_miss_rate::.cpu.data     0.001529                       # mshr miss rate for demand accesses
system.cpu.dcache.demand_mshr_miss_rate::total     0.001529                       # mshr miss rate for demand accesses
system.cpu.dcache.overall_mshr_miss_rate::.cpu.data     0.001530                       # mshr miss rate for overall accesses
system.cpu.dcache.overall_mshr_miss_rate::total     0.001530                       # mshr miss rate for overall accesses
system.cpu.dcache.demand_avg_mshr_miss_latency::.cpu.data 60546.596753                       # average overall mshr miss latency
system.cpu.dcache.demand_avg_mshr_miss_latency::total 60546.596753                       # average overall mshr miss latency
system.cpu.dcache.overall_avg_mshr_miss_latency::.cpu.data 60529.418758                       # average overall mshr miss latency
system.cpu.dcache.overall_avg_mshr_miss_latency::total 60529.418758                       # average overall mshr miss latency
system.cpu.dcache.replacements                  53652                       # number of replacements
system.cpu.dcache.ReadReq_hits::.cpu.data     21463997                       # number of ReadReq hits
system.cpu.dcache.ReadReq_hits::total        21463997                       # number of ReadReq hits
system.cpu.dcache.ReadReq_misses::.cpu.data        18680                       # number of ReadReq misses
system.cpu.dcache.ReadReq_misses::total         18680                       # number of ReadReq misses
system.cpu.dcache.ReadReq_miss_latency::.cpu.data    296536500                       # number of ReadReq miss cycles
system.cpu.dcache.ReadReq_miss_latency::total    296536500                       # number of ReadReq miss cycles
system.cpu.dcache.ReadReq_accesses::.cpu.data     21482677                       # number of ReadReq accesses(hits+misses)
system.cpu.dcache.ReadReq_accesses::total     21482677                       # number of ReadReq accesses(hits+misses)
system.cpu.dcache.ReadReq_miss_rate::.cpu.data     0.000870                       # miss rate for ReadReq accesses
system.cpu.dcache.ReadReq_miss_rate::total     0.000870                       # miss rate for ReadReq accesses
system.cpu.dcache.ReadReq_avg_miss_latency::.cpu.data 15874.544968                       # average ReadReq miss latency
system.cpu.dcache.ReadReq_avg_miss_latency::total 15874.544968                       # average ReadReq miss latency
system.cpu.dcache.ReadReq_mshr_hits::.cpu.data         2974                       # number of ReadReq MSHR hits
system.cpu.dcache.ReadReq_mshr_hits::total         2974                       # number of ReadReq MSHR hits
system.cpu.dcache.ReadReq_mshr_misses::.cpu.data        15706                       # number of ReadReq MSHR misses
system.cpu.dcache.ReadReq_mshr_misses::total        15706                       # number of ReadReq MSHR misses
system.cpu.dcache.ReadReq_mshr_miss_latency::.cpu.data    229392500                       # number of ReadReq MSHR miss cycles
system.cpu.dcache.ReadReq_mshr_miss_latency::total    229392500                       # number of ReadReq MSHR miss cycles
system.cpu.dcache.ReadReq_mshr_miss_rate::.cpu.data     0.000731                       # mshr miss rate for ReadReq accesses
system.cpu.dcache.ReadReq_mshr_miss_rate::total     0.000731                       # mshr miss rate for ReadReq accesses
system.cpu.dcache.ReadReq_avg_mshr_miss_latency::.cpu.data 14605.405577                       # average ReadReq mshr miss latency
system.cpu.dcache.ReadReq_avg_mshr_miss_latency::total 14605.405577                       # average ReadReq mshr miss latency
system.cpu.dcache.WriteReq_hits::.cpu.data     14199063                       # number of WriteReq hits
system.cpu.dcache.WriteReq_hits::total       14199063                       # number of WriteReq hits
system.cpu.dcache.WriteReq_misses::.cpu.data        55564                       # number of WriteReq misses
system.cpu.dcache.WriteReq_misses::total        55564                       # number of WriteReq misses
system.cpu.dcache.WriteReq_miss_latency::.cpu.data   4135553000                       # number of WriteReq miss cycles
system.cpu.dcache.WriteReq_miss_latency::total   4135553000                       # number of WriteReq miss cycles
system.cpu.dcache.WriteReq_accesses::.cpu.data     14254627                       # number of WriteReq accesses(hits+misses)
system.cpu.dcache.WriteReq_accesses::total     14254627                       # number of WriteReq accesses(hits+misses)
system.cpu.dcache.WriteReq_miss_rate::.cpu.data     0.003898                       # miss rate for WriteReq accesses
system.cpu.dcache.WriteReq_miss_rate::total     0.003898                       # miss rate for WriteReq accesses
system.cpu.dcache.WriteReq_avg_miss_latency::.cpu.data 74428.640847                       # average WriteReq miss latency
system.cpu.dcache.WriteReq_avg_miss_latency::total 74428.640847                       # average WriteReq miss latency
system.cpu.dcache.WriteReq_mshr_hits::.cpu.data        16631                       # number of WriteReq MSHR hits
system.cpu.dcache.WriteReq_mshr_hits::total        16631                       # number of WriteReq MSHR hits
system.cpu.dcache.WriteReq_mshr_misses::.cpu.data        38933                       # number of WriteReq MSHR misses
system.cpu.dcache.WriteReq_mshr_misses::total        38933                       # number of WriteReq MSHR misses
system.cpu.dcache.WriteReq_mshr_miss_latency::.cpu.data   3078813000                       # number of WriteReq MSHR miss cycles
system.cpu.dcache.WriteReq_mshr_miss_latency::total   3078813000                       # number of WriteReq MSHR miss cycles
system.cpu.dcache.WriteReq_mshr_miss_rate::.cpu.data     0.002731                       # mshr miss rate for WriteReq accesses
system.cpu.dcache.WriteReq_mshr_miss_rate::total     0.002731                       # mshr miss rate for WriteReq accesses
system.cpu.dcache.WriteReq_avg_mshr_miss_latency::.cpu.data 79079.778080                       # average WriteReq mshr miss latency
system.cpu.dcache.WriteReq_avg_mshr_miss_latency::total 79079.778080                       # average WriteReq mshr miss latency
system.cpu.dcache.SoftPFReq_hits::.cpu.data         3318                       # number of SoftPFReq hits
system.cpu.dcache.SoftPFReq_hits::total          3318                       # number of SoftPFReq hits
system.cpu.dcache.SoftPFReq_misses::.cpu.data           43                       # number of SoftPFReq misses
system.cpu.dcache.SoftPFReq_misses::total           43                       # number of SoftPFReq misses
system.cpu.dcache.SoftPFReq_accesses::.cpu.data         3361                       # number of SoftPFReq accesses(hits+misses)
system.cpu.dcache.SoftPFReq_accesses::total         3361                       # number of SoftPFReq accesses(hits+misses)
system.cpu.dcache.SoftPFReq_miss_rate::.cpu.data     0.012794                       # miss rate for SoftPFReq accesses
system.cpu.dcache.SoftPFReq_miss_rate::total     0.012794                       # miss rate for SoftPFReq accesses
system.cpu.dcache.SoftPFReq_mshr_misses::.cpu.data           37                       # number of SoftPFReq MSHR misses
system.cpu.dcache.SoftPFReq_mshr_misses::total           37                       # number of SoftPFReq MSHR misses
system.cpu.dcache.SoftPFReq_mshr_miss_latency::.cpu.data      1301000                       # number of SoftPFReq MSHR miss cycles
system.cpu.dcache.SoftPFReq_mshr_miss_latency::total      1301000                       # number of SoftPFReq MSHR miss cycles
system.cpu.dcache.SoftPFReq_mshr_miss_rate::.cpu.data     0.011009                       # mshr miss rate for SoftPFReq accesses
system.cpu.dcache.SoftPFReq_mshr_miss_rate::total     0.011009                       # mshr miss rate for SoftPFReq accesses
system.cpu.dcache.SoftPFReq_avg_mshr_miss_latency::.cpu.data 35162.162162                       # average SoftPFReq mshr miss latency
system.cpu.dcache.SoftPFReq_avg_mshr_miss_latency::total 35162.162162                       # average SoftPFReq mshr miss latency
system.cpu.dcache.LoadLockedReq_hits::.cpu.data        89082                       # number of LoadLockedReq hits
system.cpu.dcache.LoadLockedReq_hits::total        89082                       # number of LoadLockedReq hits
system.cpu.dcache.LoadLockedReq_accesses::.cpu.data        89082                       # number of LoadLockedReq accesses(hits+misses)
system.cpu.dcache.LoadLockedReq_accesses::total        89082                       # number of LoadLockedReq accesses(hits+misses)
system.cpu.dcache.StoreCondReq_hits::.cpu.data        89082                       # number of StoreCondReq hits
system.cpu.dcache.StoreCondReq_hits::total        89082                       # number of StoreCondReq hits
system.cpu.dcache.StoreCondReq_accesses::.cpu.data        89082                       # number of StoreCondReq accesses(hits+misses)
system.cpu.dcache.StoreCondReq_accesses::total        89082                       # number of StoreCondReq accesses(hits+misses)
system.cpu.dcache.power_state.pwrStateResidencyTicks::UNDEFINED  57756929000                       # Cumulative time (in ticks) in various power states
system.cpu.dcache.tags.tagsinuse          1020.473077                       # Cycle average of tags in use
system.cpu.dcache.tags.total_refs            35899218                       # Total number of references to valid blocks.
system.cpu.dcache.tags.sampled_refs             54676                       # Sample count of references to valid blocks.
system.cpu.dcache.tags.avg_refs            656.580913                       # Average number of references to valid blocks.
system.cpu.dcache.tags.warmup_cycle            195500                       # Cycle when the warmup percentage was hit.
system.cpu.dcache.tags.occ_blocks::.cpu.data  1020.473077                       # Average occupied blocks per requestor
system.cpu.dcache.tags.occ_percent::.cpu.data     0.996556                       # Average percentage of cache occupancy
system.cpu.dcache.tags.occ_percent::total     0.996556                       # Average percentage of cache occupancy
system.cpu.dcache.tags.occ_task_id_blocks::1024         1024                       # Occupied blocks per task id
system.cpu.dcache.tags.age_task_id_blocks_1024::0            5                       # Occupied blocks per task id
system.cpu.dcache.tags.age_task_id_blocks_1024::1           43                       # Occupied blocks per task id
system.cpu.dcache.tags.age_task_id_blocks_1024::2          563                       # Occupied blocks per task id
system.cpu.dcache.tags.age_task_id_blocks_1024::3          373                       # Occupied blocks per task id
system.cpu.dcache.tags.age_task_id_blocks_1024::4           40                       # Occupied blocks per task id
system.cpu.dcache.tags.occ_task_id_percent::1024            1                       # Percentage of cache occupancy per task id
system.cpu.dcache.tags.tag_accesses          71892334                       # Number of tag accesses
system.cpu.dcache.tags.data_accesses         71892334                       # Number of data accesses
system.cpu.dcache.tags.power_state.pwrStateResidencyTicks::UNDEFINED  57756929000                       # Cumulative time (in ticks) in various power states
system.cpu.dtb.instHits                             0                       # ITB inst hits
system.cpu.dtb.instMisses                           0                       # ITB inst misses
system.cpu.dtb.readHits                             0                       # DTB read hits
system.cpu.dtb.readMisses                           0                       # DTB read misses
system.cpu.dtb.writeHits                            0                       # DTB write hits
system.cpu.dtb.writeMisses                          0                       # DTB write misses
system.cpu.dtb.inserts                              0                       # Number of times an entry is inserted into the TLB
system.cpu.dtb.flushTlb                             0                       # Number of times complete TLB was flushed
system.cpu.dtb.flushTlbMva                          0                       # Number of times TLB was flushed by MVA
system.cpu.dtb.flushTlbMvaAsid                      0                       # Number of times TLB was flushed by MVA & ASID
system.cpu.dtb.flushTlbAsid                         0                       # Number of times TLB was flushed by ASID
system.cpu.dtb.flushedEntries                       0                       # Number of entries that have been flushed from TLB
system.cpu.dtb.alignFaults                          0                       # Number of TLB faults due to alignment restrictions
system.cpu.dtb.prefetchFaults                       0                       # Number of TLB faults due to prefetch
system.cpu.dtb.domainFaults                         0                       # Number of TLB faults due to domain restrictions
system.cpu.dtb.permsFaults                          0                       # Number of TLB faults due to permissions restrictions
system.cpu.dtb.readAccesses                         0                       # DTB read accesses
system.cpu.dtb.writeAccesses                        0                       # DTB write accesses
system.cpu.dtb.instAccesses                         0                       # ITB inst accesses
system.cpu.dtb.hits                                 0                       # Total TLB (inst and data) hits
system.cpu.dtb.misses                               0                       # Total TLB (inst and data) misses
system.cpu.dtb.accesses                             0                       # Total TLB (inst and data) accesses
system.cpu.dtb.stage2_mmu.stage2_tlb.instHits            0                       # ITB inst hits
system.cpu.dtb.stage2_mmu.stage2_tlb.instMisses            0                       # ITB inst misses
system.cpu.dtb.stage2_mmu.stage2_tlb.readHits            0                       # DTB read hits
system.cpu.dtb.stage2_mmu.stage2_tlb.readMisses            0                       # DTB read misses
system.cpu.dtb.stage2_mmu.stage2_tlb.writeHits            0                       # DTB write hits
system.cpu.dtb.stage2_mmu.stage2_tlb.writeMisses            0                       # DTB write misses
system.cpu.dtb.stage2_mmu.stage2_tlb.inserts            0                       # Number of times an entry is inserted into the TLB
system.cpu.dtb.stage2_mmu.stage2_tlb.flushTlb            0                       # Number of times complete TLB was flushed
system.cpu.dtb.stage2_mmu.stage2_tlb.flushTlbMva            0                       # Number of times TLB was flushed by MVA
system.cpu.dtb.stage2_mmu.stage2_tlb.flushTlbMvaAsid            0                       # Number of times TLB was flushed by MVA & ASID
system.cpu.dtb.stage2_mmu.stage2_tlb.flushTlbAsid            0                       # Number of times TLB was flushed by ASID
system.cpu.dtb.stage2_mmu.stage2_tlb.flushedEntries            0                       # Number of entries that have been flushed from TLB
system.cpu.dtb.stage2_mmu.stage2_tlb.alignFaults            0                       # Number of TLB faults due to alignment restrictions
system.cpu.dtb.stage2_mmu.stage2_tlb.prefetchFaults            0                       # Number of TLB faults due to prefetch
system.cpu.dtb.stage2_mmu.stage2_tlb.domainFaults            0                       # Number of TLB faults due to domain restrictions
system.cpu.dtb.stage2_mmu.stage2_tlb.permsFaults            0                       # Number of TLB faults due to permissions restrictions
system.cpu.dtb.stage2_mmu.stage2_tlb.readAccesses            0                       # DTB read accesses
system.cpu.dtb.stage2_mmu.stage2_tlb.writeAccesses            0                       # DTB write accesses
system.cpu.dtb.stage2_mmu.stage2_tlb.instAccesses            0                       # ITB inst accesses
system.cpu.dtb.stage2_mmu.stage2_tlb.hits            0                       # Total TLB (inst and data) hits
system.cpu.dtb.stage2_mmu.stage2_tlb.misses            0                       # Total TLB (inst and data) misses
system.cpu.dtb.stage2_mmu.stage2_tlb.accesses            0                       # Total TLB (inst and data) accesses
system.cpu.dtb.stage2_mmu.stage2_tlb.walker.walks            0                       # Table walker walks requested
system.cpu.dtb.stage2_mmu.stage2_tlb.walker.requestOrigin_Requested::Data            0                       # Table walker requests started/completed, data/inst
system.cpu.dtb.stage2_mmu.stage2_tlb.walker.requestOrigin_Requested::Inst            0                       # Table walker requests started/completed, data/inst
system.cpu.dtb.stage2_mmu.stage2_tlb.walker.requestOrigin_Requested::total            0                       # Table walker requests started/completed, data/inst
system.cpu.dtb.stage2_mmu.stage2_tlb.walker.requestOrigin_Completed::Data            0                       # Table walker requests started/completed, data/inst
system.cpu.dtb.stage2_mmu.stage2_tlb.walker.requestOrigin_Completed::Inst            0                       # Table walker requests started/completed, data/inst
system.cpu.dtb.stage2_mmu.stage2_tlb.walker.requestOrigin_Completed::total            0                       # Table walker requests started/completed, data/inst
system.cpu.dtb.stage2_mmu.stage2_tlb.walker.requestOrigin::total            0                       # Table walker requests started/completed, data/inst
system.cpu.dtb.stage2_mmu.stage2_tlb.walker.power_state.pwrStateResidencyTicks::UNDEFINED  57756929000                       # Cumulative time (in ticks) in various power states
system.cpu.dtb.walker.walks                         0                       # Table walker walks requested
system.cpu.dtb.walker.requestOrigin_Requested::Data            0                       # Table walker requests started/completed, data/inst
system.cpu.dtb.walker.requestOrigin_Requested::Inst            0                       # Table walker requests started/completed, data/inst
system.cpu.dtb.walker.requestOrigin_Requested::total            0                       # Table walker requests started/completed, data/inst
system.cpu.dtb.walker.requestOrigin_Completed::Data            0                       # Table walker requests started/completed, data/inst
system.cpu.dtb.walker.requestOrigin_Completed::Inst            0                       # Table walker requests started/completed, data/inst
system.cpu.dtb.walker.requestOrigin_Completed::total            0                       # Table walker requests started/completed, data/inst
system.cpu.dtb.walker.requestOrigin::total            0                       # Table walker requests started/completed, data/inst
system.cpu.dtb.walker.power_state.pwrStateResidencyTicks::UNDEFINED  57756929000                       # Cumulative time (in ticks) in various power states
system.cpu.fetch2.intInstructions            49921542                       # Number of integer instructions successfully decoded
system.cpu.fetch2.fpInstructions                    0                       # Number of floating point instructions successfully decoded
system.cpu.fetch2.vecInstructions                   0                       # Number of SIMD instructions successfully decoded
system.cpu.fetch2.loadInstructions           17208268                       # Number of memory load instructions successfully decoded
system.cpu.fetch2.storeInstructions          10039432                       # Number of memory store instructions successfully decoded
system.cpu.fetch2.amoInstructions                   0                       # Number of memory atomic instructions successfully decoded
system.cpu.icache.demand_hits::.cpu.inst     28666373                       # number of demand (read+write) hits
system.cpu.icache.demand_hits::total         28666373                       # number of demand (read+write) hits
system.cpu.icache.overall_hits::.cpu.inst     28666373                       # number of overall hits
system.cpu.icache.overall_hits::total        28666373                       # number of overall hits
system.cpu.icache.demand_misses::.cpu.inst          526                       # number of demand (read+write) misses
system.cpu.icache.demand_misses::total            526                       # number of demand (read+write) misses
system.cpu.icache.overall_misses::.cpu.inst          526                       # number of overall misses
system.cpu.icache.overall_misses::total           526                       # number of overall misses
system.cpu.icache.demand_miss_latency::.cpu.inst     40395500                       # number of demand (read+write) miss cycles
system.cpu.icache.demand_miss_latency::total     40395500                       # number of demand (read+write) miss cycles
system.cpu.icache.overall_miss_latency::.cpu.inst     40395500                       # number of overall miss cycles
system.cpu.icache.overall_miss_latency::total     40395500                       # number of overall miss cycles
system.cpu.icache.demand_accesses::.cpu.inst     28666899                       # number of demand (read+write) accesses
system.cpu.icache.demand_accesses::total     28666899                       # number of demand (read+write) accesses
system.cpu.icache.overall_accesses::.cpu.inst     28666899                       # number of overall (read+write) accesses
system.cpu.icache.overall_accesses::total     28666899                       # number of overall (read+write) accesses
system.cpu.icache.demand_miss_rate::.cpu.inst     0.000018                       # miss rate for demand accesses
system.cpu.icache.demand_miss_rate::total     0.000018                       # miss rate for demand accesses
system.cpu.icache.overall_miss_rate::.cpu.inst     0.000018                       # miss rate for overall accesses
system.cpu.icache.overall_miss_rate::total     0.000018                       # miss rate for overall accesses
system.cpu.icache.demand_avg_miss_latency::.cpu.inst 76797.528517                       # average overall miss latency
system.cpu.icache.demand_avg_miss_latency::total 76797.528517                       # average overall miss latency
system.cpu.icache.overall_avg_miss_latency::.cpu.inst 76797.528517                       # average overall miss latency
system.cpu.icache.overall_avg_miss_latency::total 76797.528517                       # average overall miss latency
system.cpu.icache.blocked_cycles::no_mshrs            0                       # number of cycles access was blocked
system.cpu.icache.blocked_cycles::no_targets            0                       # number of cycles access was blocked
system.cpu.icache.blocked::no_mshrs                 0                       # number of cycles access was blocked
system.cpu.icache.blocked::no_targets               0                       # number of cycles access was blocked
system.cpu.icache.avg_blocked_cycles::no_mshrs          nan                       # average number of cycles each access was blocked
system.cpu.icache.avg_blocked_cycles::no_targets          nan                       # average number of cycles each access was blocked
system.cpu.icache.writebacks::.writebacks           64                       # number of writebacks
system.cpu.icache.writebacks::total                64                       # number of writebacks
system.cpu.icache.demand_mshr_misses::.cpu.inst          526                       # number of demand (read+write) MSHR misses
system.cpu.icache.demand_mshr_misses::total          526                       # number of demand (read+write) MSHR misses
system.cpu.icache.overall_mshr_misses::.cpu.inst          526                       # number of overall MSHR misses
system.cpu.icache.overall_mshr_misses::total          526                       # number of overall MSHR misses
system.cpu.icache.demand_mshr_miss_latency::.cpu.inst     39869500                       # number of demand (read+write) MSHR miss cycles
system.cpu.icache.demand_mshr_miss_latency::total     39869500                       # number of demand (read+write) MSHR miss cycles
system.cpu.icache.overall_mshr_miss_latency::.cpu.inst     39869500                       # number of overall MSHR miss cycles
system.cpu.icache.overall_mshr_miss_latency::total     39869500                       # number of overall MSHR miss cycles
system.cpu.icache.demand_mshr_miss_rate::.cpu.inst     0.000018                       # mshr miss rate for demand accesses
system.cpu.icache.demand_mshr_miss_rate::total     0.000018                       # mshr miss rate for demand accesses
system.cpu.icache.overall_mshr_miss_rate::.cpu.inst     0.000018                       # mshr miss rate for overall accesses
system.cpu.icache.overall_mshr_miss_rate::total     0.000018                       # mshr miss rate for overall accesses
system.cpu.icache.demand_avg_mshr_miss_latency::.cpu.inst 75797.528517                       # average overall mshr miss latency
system.cpu.icache.demand_avg_mshr_miss_latency::total 75797.528517                       # average overall mshr miss latency
system.cpu.icache.overall_avg_mshr_miss_latency::.cpu.inst 75797.528517                       # average overall mshr miss latency
system.cpu.icache.overall_avg_mshr_miss_latency::total 75797.528517                       # average overall mshr miss latency
system.cpu.icache.replacements                     64                       # number of replacements
system.cpu.icache.ReadReq_hits::.cpu.inst     28666373                       # number of ReadReq hits
system.cpu.icache.ReadReq_hits::total        28666373                       # number of ReadReq hits
system.cpu.icache.ReadReq_misses::.cpu.inst          526                       # number of ReadReq misses
system.cpu.icache.ReadReq_misses::total           526                       # number of ReadReq misses
system.cpu.icache.ReadReq_miss_latency::.cpu.inst     40395500                       # number of ReadReq miss cycles
system.cpu.icache.ReadReq_miss_latency::total     40395500                       # number of ReadReq miss cycles
system.cpu.icache.ReadReq_accesses::.cpu.inst     28666899                       # number of ReadReq accesses(hits+misses)
system.cpu.icache.ReadReq_accesses::total     28666899                       # number of ReadReq accesses(hits+misses)
system.cpu.icache.ReadReq_miss_rate::.cpu.inst     0.000018                       # miss rate for ReadReq accesses
system.cpu.icache.ReadReq_miss_rate::total     0.000018                       # miss rate for ReadReq accesses
system.cpu.icache.ReadReq_avg_miss_latency::.cpu.inst 76797.528517                       # average ReadReq miss latency
system.cpu.icache.ReadReq_avg_miss_latency::total 76797.528517                       # average ReadReq miss latency
system.cpu.icache.ReadReq_mshr_misses::.cpu.inst          526                       # number of ReadReq MSHR misses
system.cpu.icache.ReadReq_mshr_misses::total          526                       # number of ReadReq MSHR misses
system.cpu.icache.ReadReq_mshr_miss_latency::.cpu.inst     39869500                       # number of ReadReq MSHR miss cycles
system.cpu.icache.ReadReq_mshr_miss_latency::total     39869500                       # number of ReadReq MSHR miss cycles
system.cpu.icache.ReadReq_mshr_miss_rate::.cpu.inst     0.000018                       # mshr miss rate for ReadReq accesses
system.cpu.icache.ReadReq_mshr_miss_rate::total     0.000018                       # mshr miss rate for ReadReq accesses
system.cpu.icache.ReadReq_avg_mshr_miss_latency::.cpu.inst 75797.528517                       # average ReadReq mshr miss latency
system.cpu.icache.ReadReq_avg_mshr_miss_latency::total 75797.528517                       # average ReadReq mshr miss latency
system.cpu.icache.power_state.pwrStateResidencyTicks::UNDEFINED  57756929000                       # Cumulative time (in ticks) in various power states
system.cpu.icache.tags.tagsinuse           461.521809                       # Cycle average of tags in use
system.cpu.icache.tags.total_refs            28666899                       # Total number of references to valid blocks.
system.cpu.icache.tags.sampled_refs               526                       # Sample count of references to valid blocks.
system.cpu.icache.tags.avg_refs          54499.807985                       # Average number of references to valid blocks.
system.cpu.icache.tags.warmup_cycle             87500                       # Cycle when the warmup percentage was hit.
system.cpu.icache.tags.occ_blocks::.cpu.inst   461.521809                       # Average occupied blocks per requestor
system.cpu.icache.tags.occ_percent::.cpu.inst     0.901410                       # Average percentage of cache occupancy
system.cpu.icache.tags.occ_percent::total     0.901410                       # Average percentage of cache occupancy
system.cpu.icache.tags.occ_task_id_blocks::1024          462                       # Occupied blocks per task id
system.cpu.icache.tags.age_task_id_blocks_1024::4          462                       # Occupied blocks per task id
system.cpu.icache.tags.occ_task_id_percent::1024     0.902344                       # Percentage of cache occupancy per task id
system.cpu.icache.tags.tag_accesses         229335718                       # Number of tag accesses
system.cpu.icache.tags.data_accesses        229335718                       # Number of data accesses
system.cpu.icache.tags.power_state.pwrStateResidencyTicks::UNDEFINED  57756929000                       # Cumulative time (in ticks) in various power states
system.cpu.itb.instHits                             0                       # ITB inst hits
system.cpu.itb.instMisses                           0                       # ITB inst misses
system.cpu.itb.readHits                             0                       # DTB read hits
system.cpu.itb.readMisses                           0                       # DTB read misses
system.cpu.itb.writeHits                            0                       # DTB write hits
system.cpu.itb.writeMisses                          0                       # DTB write misses
system.cpu.itb.inserts                              0                       # Number of times an entry is inserted into the TLB
system.cpu.itb.flushTlb                             0                       # Number of times complete TLB was flushed
system.cpu.itb.flushTlbMva                          0                       # Number of times TLB was flushed by MVA
system.cpu.itb.flushTlbMvaAsid                      0                       # Number of times TLB was flushed by MVA & ASID
system.cpu.itb.flushTlbAsid                         0                       # Number of times TLB was flushed by ASID
system.cpu.itb.flushedEntries                       0                       # Number of entries that have been flushed from TLB
system.cpu.itb.alignFaults                          0                       # Number of TLB faults due to alignment restrictions
system.cpu.itb.prefetchFaults                       0                       # Number of TLB faults due to prefetch
system.cpu.itb.domainFaults                         0                       # Number of TLB faults due to domain restrictions
system.cpu.itb.permsFaults                          0                       # Number of TLB faults due to permissions restrictions
system.cpu.itb.readAccesses                         0                       # DTB read accesses
system.cpu.itb.writeAccesses                        0                       # DTB write accesses
system.cpu.itb.instAccesses                         0                       # ITB inst accesses
system.cpu.itb.hits                                 0                       # Total TLB (inst and data) hits
system.cpu.itb.misses                               0                       # Total TLB (inst and data) misses
system.cpu.itb.accesses                             0                       # Total TLB (inst and data) accesses
system.cpu.itb.stage2_mmu.stage2_tlb.instHits            0                       # ITB inst hits
system.cpu.itb.stage2_mmu.stage2_tlb.instMisses            0                       # ITB inst misses
system.cpu.itb.stage2_mmu.stage2_tlb.readHits            0                       # DTB read hits
system.cpu.itb.stage2_mmu.stage2_tlb.readMisses            0                       # DTB read misses
system.cpu.itb.stage2_mmu.stage2_tlb.writeHits            0                       # DTB write hits
system.cpu.itb.stage2_mmu.stage2_tlb.writeMisses            0                       # DTB write misses
system.cpu.itb.stage2_mmu.stage2_tlb.inserts            0                       # Number of times an entry is inserted into the TLB
system.cpu.itb.stage2_mmu.stage2_tlb.flushTlb            0                       # Number of times complete TLB was flushed
system.cpu.itb.stage2_mmu.stage2_tlb.flushTlbMva            0                       # Number of times TLB was flushed by MVA
system.cpu.itb.stage2_mmu.stage2_tlb.flushTlbMvaAsid            0                       # Number of times TLB was flushed by MVA & ASID
system.cpu.itb.stage2_mmu.stage2_tlb.flushTlbAsid            0                       # Number of times TLB was flushed by ASID
system.cpu.itb.stage2_mmu.stage2_tlb.flushedEntries            0                       # Number of entries that have been flushed from TLB
system.cpu.itb.stage2_mmu.stage2_tlb.alignFaults            0                       # Number of TLB faults due to alignment restrictions
system.cpu.itb.stage2_mmu.stage2_tlb.prefetchFaults            0                       # Number of TLB faults due to prefetch
system.cpu.itb.stage2_mmu.stage2_tlb.domainFaults            0                       # Number of TLB faults due to domain restrictions
system.cpu.itb.stage2_mmu.stage2_tlb.permsFaults            0                       # Number of TLB faults due to permissions restrictions
system.cpu.itb.stage2_mmu.stage2_tlb.readAccesses            0                       # DTB read accesses
system.cpu.itb.stage2_mmu.stage2_tlb.writeAccesses            0                       # DTB write accesses
system.cpu.itb.stage2_mmu.stage2_tlb.instAccesses            0                       # ITB inst accesses
system.cpu.itb.stage2_mmu.stage2_tlb.hits            0                       # Total TLB (inst and data) hits
system.cpu.itb.stage2_mmu.stage2_tlb.misses            0                       # Total TLB (inst and data) misses
system.cpu.itb.stage2_mmu.stage2_tlb.accesses            0                       # Total TLB (inst and data) accesses
system.cpu.itb.stage2_mmu.stage2_tlb.walker.walks            0                       # Table walker walks requested
system.cpu.itb.stage2_mmu.stage2_tlb.walker.requestOrigin_Requested::Data            0                       # Table walker requests started/completed, data/inst
system.cpu.itb.stage2_mmu.stage2_tlb.walker.requestOrigin_Requested::Inst            0                       # Table walker requests started/completed, data/inst
system.cpu.itb.stage2_mmu.stage2_tlb.walker.requestOrigin_Requested::total            0                       # Table walker requests started/completed, data/inst
system.cpu.itb.stage2_mmu.stage2_tlb.walker.requestOrigin_Completed::Data            0                       # Table walker requests started/completed, data/inst
system.cpu.itb.stage2_mmu.stage2_tlb.walker.requestOrigin_Completed::Inst            0                       # Table walker requests started/completed, data/inst
system.cpu.itb.stage2_mmu.stage2_tlb.walker.requestOrigin_Completed::total            0                       # Table walker requests started/completed, data/inst
system.cpu.itb.stage2_mmu.stage2_tlb.walker.requestOrigin::total            0                       # Table walker requests started/completed, data/inst
system.cpu.itb.stage2_mmu.stage2_tlb.walker.power_state.pwrStateResidencyTicks::UNDEFINED  57756929000                       # Cumulative time (in ticks) in various power states
system.cpu.itb.walker.walks                         0                       # Table walker walks requested
system.cpu.itb.walker.requestOrigin_Requested::Data            0                       # Table walker requests started/completed, data/inst
system.cpu.itb.walker.requestOrigin_Requested::Inst            0                       # Table walker requests started/completed, data/inst
system.cpu.itb.walker.requestOrigin_Requested::total            0                       # Table walker requests started/completed, data/inst
system.cpu.itb.walker.requestOrigin_Completed::Data            0                       # Table walker requests started/completed, data/inst
system.cpu.itb.walker.requestOrigin_Completed::Inst            0                       # Table walker requests started/completed, data/inst
system.cpu.itb.walker.requestOrigin_Completed::total            0                       # Table walker requests started/completed, data/inst
system.cpu.itb.walker.requestOrigin::total            0                       # Table walker requests started/completed, data/inst
system.cpu.itb.walker.power_state.pwrStateResidencyTicks::UNDEFINED  57756929000                       # Cumulative time (in ticks) in various power states
system.cpu.power_state.pwrStateResidencyTicks::ON  57756929000                       # Cumulative time (in ticks) in various power states
system.cpu.thread_0.numInsts                100000000                       # Number of Instructions committed
system.cpu.thread_0.numOps                  109431867                       # Number of Ops committed
system.cpu.thread_0.numMemRefs                      0                       # Number of Memory References
system.cpu_clk_domain.clock                       500                       # Clock period in ticks
system.cpu_voltage_domain.voltage                   1                       # Voltage in Volts
system.l2.demand_hits::.cpu.inst                   14                       # number of demand (read+write) hits
system.l2.demand_hits::.cpu.data                15336                       # number of demand (read+write) hits
system.l2.demand_hits::total                    15350                       # number of demand (read+write) hits
system.l2.overall_hits::.cpu.inst                  14                       # number of overall hits
system.l2.overall_hits::.cpu.data               15336                       # number of overall hits
system.l2.overall_hits::total                   15350                       # number of overall hits
system.l2.demand_misses::.cpu.inst                512                       # number of demand (read+write) misses
system.l2.demand_misses::.cpu.data              39340                       # number of demand (read+write) misses
system.l2.demand_misses::total                  39852                       # number of demand (read+write) misses
system.l2.overall_misses::.cpu.inst               512                       # number of overall misses
system.l2.overall_misses::.cpu.data             39340                       # number of overall misses
system.l2.overall_misses::total                 39852                       # number of overall misses
system.l2.demand_miss_latency::.cpu.inst     38927000                       # number of demand (read+write) miss cycles
system.l2.demand_miss_latency::.cpu.data   3066444500                       # number of demand (read+write) miss cycles
system.l2.demand_miss_latency::total       3105371500                       # number of demand (read+write) miss cycles
system.l2.overall_miss_latency::.cpu.inst     38927000                       # number of overall miss cycles
system.l2.overall_miss_latency::.cpu.data   3066444500                       # number of overall miss cycles
system.l2.overall_miss_latency::total      3105371500                       # number of overall miss cycles
system.l2.demand_accesses::.cpu.inst              526                       # number of demand (read+write) accesses
system.l2.demand_accesses::.cpu.data            54676                       # number of demand (read+write) accesses
system.l2.demand_accesses::total                55202                       # number of demand (read+write) accesses
system.l2.overall_accesses::.cpu.inst             526                       # number of overall (read+write) accesses
system.l2.overall_accesses::.cpu.data           54676                       # number of overall (read+write) accesses
system.l2.overall_accesses::total               55202                       # number of overall (read+write) accesses
system.l2.demand_miss_rate::.cpu.inst        0.973384                       # miss rate for demand accesses
system.l2.demand_miss_rate::.cpu.data        0.719511                       # miss rate for demand accesses
system.l2.demand_miss_rate::total            0.721930                       # miss rate for demand accesses
system.l2.overall_miss_rate::.cpu.inst       0.973384                       # miss rate for overall accesses
system.l2.overall_miss_rate::.cpu.data       0.719511                       # miss rate for overall accesses
system.l2.overall_miss_rate::total           0.721930                       # miss rate for overall accesses
system.l2.demand_avg_miss_latency::.cpu.inst 76029.296875                       # average overall miss latency
system.l2.demand_avg_miss_latency::.cpu.data 77947.241993                       # average overall miss latency
system.l2.demand_avg_miss_latency::total 77922.601124                       # average overall miss latency
system.l2.overall_avg_miss_latency::.cpu.inst 76029.296875                       # average overall miss latency
system.l2.overall_avg_miss_latency::.cpu.data 77947.241993                       # average overall miss latency
system.l2.overall_avg_miss_latency::total 77922.601124                       # average overall miss latency
system.l2.blocked_cycles::no_mshrs                  0                       # number of cycles access was blocked
system.l2.blocked_cycles::no_targets                0                       # number of cycles access was blocked
system.l2.blocked::no_mshrs                         0                       # number of cycles access was blocked
system.l2.blocked::no_targets                       0                       # number of cycles access was blocked
system.l2.avg_blocked_cycles::no_mshrs            nan                       # average number of cycles each access was blocked
system.l2.avg_blocked_cycles::no_targets          nan                       # average number of cycles each access was blocked
system.l2.writebacks::.writebacks                6486                       # number of writebacks
system.l2.writebacks::total                      6486                       # number of writebacks
system.l2.demand_mshr_hits::.cpu.inst               1                       # number of demand (read+write) MSHR hits
system.l2.demand_mshr_hits::.cpu.data               5                       # number of demand (read+write) MSHR hits
system.l2.demand_mshr_hits::total                   6                       # number of demand (read+write) MSHR hits
system.l2.overall_mshr_hits::.cpu.inst              1                       # number of overall MSHR hits
system.l2.overall_mshr_hits::.cpu.data              5                       # number of overall MSHR hits
system.l2.overall_mshr_hits::total                  6                       # number of overall MSHR hits
system.l2.demand_mshr_misses::.cpu.inst           511                       # number of demand (read+write) MSHR misses
system.l2.demand_mshr_misses::.cpu.data         39335                       # number of demand (read+write) MSHR misses
system.l2.demand_mshr_misses::total             39846                       # number of demand (read+write) MSHR misses
system.l2.overall_mshr_misses::.cpu.inst          511                       # number of overall MSHR misses
system.l2.overall_mshr_misses::.cpu.data        39335                       # number of overall MSHR misses
system.l2.overall_mshr_misses::total            39846                       # number of overall MSHR misses
system.l2.demand_mshr_miss_latency::.cpu.inst     33752500                       # number of demand (read+write) MSHR miss cycles
system.l2.demand_mshr_miss_latency::.cpu.data   2672753500                       # number of demand (read+write) MSHR miss cycles
system.l2.demand_mshr_miss_latency::total   2706506000                       # number of demand (read+write) MSHR miss cycles
system.l2.overall_mshr_miss_latency::.cpu.inst     33752500                       # number of overall MSHR miss cycles
system.l2.overall_mshr_miss_latency::.cpu.data   2672753500                       # number of overall MSHR miss cycles
system.l2.overall_mshr_miss_latency::total   2706506000                       # number of overall MSHR miss cycles
system.l2.demand_mshr_miss_rate::.cpu.inst     0.971483                       # mshr miss rate for demand accesses
system.l2.demand_mshr_miss_rate::.cpu.data     0.719420                       # mshr miss rate for demand accesses
system.l2.demand_mshr_miss_rate::total       0.721822                       # mshr miss rate for demand accesses
system.l2.overall_mshr_miss_rate::.cpu.inst     0.971483                       # mshr miss rate for overall accesses
system.l2.overall_mshr_miss_rate::.cpu.data     0.719420                       # mshr miss rate for overall accesses
system.l2.overall_mshr_miss_rate::total      0.721822                       # mshr miss rate for overall accesses
system.l2.demand_avg_mshr_miss_latency::.cpu.inst 66051.859100                       # average overall mshr miss latency
system.l2.demand_avg_mshr_miss_latency::.cpu.data 67948.480997                       # average overall mshr miss latency
system.l2.demand_avg_mshr_miss_latency::total 67924.158008                       # average overall mshr miss latency
system.l2.overall_avg_mshr_miss_latency::.cpu.inst 66051.859100                       # average overall mshr miss latency
system.l2.overall_avg_mshr_miss_latency::.cpu.data 67948.480997                       # average overall mshr miss latency
system.l2.overall_avg_mshr_miss_latency::total 67924.158008                       # average overall mshr miss latency
system.l2.replacements                           7081                       # number of replacements
system.l2.WritebackDirty_hits::.writebacks        50228                       # number of WritebackDirty hits
system.l2.WritebackDirty_hits::total            50228                       # number of WritebackDirty hits
system.l2.WritebackDirty_accesses::.writebacks        50228                       # number of WritebackDirty accesses(hits+misses)
system.l2.WritebackDirty_accesses::total        50228                       # number of WritebackDirty accesses(hits+misses)
system.l2.WritebackClean_hits::.writebacks           61                       # number of WritebackClean hits
system.l2.WritebackClean_hits::total               61                       # number of WritebackClean hits
system.l2.WritebackClean_accesses::.writebacks           61                       # number of WritebackClean accesses(hits+misses)
system.l2.WritebackClean_accesses::total           61                       # number of WritebackClean accesses(hits+misses)
system.l2.ReadExReq_hits::.cpu.data               121                       # number of ReadExReq hits
system.l2.ReadExReq_hits::total                   121                       # number of ReadExReq hits
system.l2.ReadExReq_misses::.cpu.data           38812                       # number of ReadExReq misses
system.l2.ReadExReq_misses::total               38812                       # number of ReadExReq misses
system.l2.ReadExReq_miss_latency::.cpu.data   3019143000                       # number of ReadExReq miss cycles
system.l2.ReadExReq_miss_latency::total    3019143000                       # number of ReadExReq miss cycles
system.l2.ReadExReq_accesses::.cpu.data         38933                       # number of ReadExReq accesses(hits+misses)
system.l2.ReadExReq_accesses::total             38933                       # number of ReadExReq accesses(hits+misses)
system.l2.ReadExReq_miss_rate::.cpu.data     0.996892                       # miss rate for ReadExReq accesses
system.l2.ReadExReq_miss_rate::total         0.996892                       # miss rate for ReadExReq accesses
system.l2.ReadExReq_avg_miss_latency::.cpu.data 77788.905493                       # average ReadExReq miss latency
system.l2.ReadExReq_avg_miss_latency::total 77788.905493                       # average ReadExReq miss latency
system.l2.ReadExReq_mshr_misses::.cpu.data        38812                       # number of ReadExReq MSHR misses
system.l2.ReadExReq_mshr_misses::total          38812                       # number of ReadExReq MSHR misses
system.l2.ReadExReq_mshr_miss_latency::.cpu.data   2631023000                       # number of ReadExReq MSHR miss cycles
system.l2.ReadExReq_mshr_miss_latency::total   2631023000                       # number of ReadExReq MSHR miss cycles
system.l2.ReadExReq_mshr_miss_rate::.cpu.data     0.996892                       # mshr miss rate for ReadExReq accesses
system.l2.ReadExReq_mshr_miss_rate::total     0.996892                       # mshr miss rate for ReadExReq accesses
system.l2.ReadExReq_avg_mshr_miss_latency::.cpu.data 67788.905493                       # average ReadExReq mshr miss latency
system.l2.ReadExReq_avg_mshr_miss_latency::total 67788.905493                       # average ReadExReq mshr miss latency
system.l2.ReadCleanReq_hits::.cpu.inst             14                       # number of ReadCleanReq hits
system.l2.ReadCleanReq_hits::total                 14                       # number of ReadCleanReq hits
system.l2.ReadCleanReq_misses::.cpu.inst          512                       # number of ReadCleanReq misses
system.l2.ReadCleanReq_misses::total              512                       # number of ReadCleanReq misses
system.l2.ReadCleanReq_miss_latency::.cpu.inst     38927000                       # number of ReadCleanReq miss cycles
system.l2.ReadCleanReq_miss_latency::total     38927000                       # number of ReadCleanReq miss cycles
system.l2.ReadCleanReq_accesses::.cpu.inst          526                       # number of ReadCleanReq accesses(hits+misses)
system.l2.ReadCleanReq_accesses::total            526                       # number of ReadCleanReq accesses(hits+misses)
system.l2.ReadCleanReq_miss_rate::.cpu.inst     0.973384                       # miss rate for ReadCleanReq accesses
system.l2.ReadCleanReq_miss_rate::total      0.973384                       # miss rate for ReadCleanReq accesses
system.l2.ReadCleanReq_avg_miss_latency::.cpu.inst 76029.296875                       # average ReadCleanReq miss latency
system.l2.ReadCleanReq_avg_miss_latency::total 76029.296875                       # average ReadCleanReq miss latency
system.l2.ReadCleanReq_mshr_hits::.cpu.inst            1                       # number of ReadCleanReq MSHR hits
system.l2.ReadCleanReq_mshr_hits::total             1                       # number of ReadCleanReq MSHR hits
system.l2.ReadCleanReq_mshr_misses::.cpu.inst          511                       # number of ReadCleanReq MSHR misses
system.l2.ReadCleanReq_mshr_misses::total          511                       # number of ReadCleanReq MSHR misses
system.l2.ReadCleanReq_mshr_miss_latency::.cpu.inst     33752500                       # number of ReadCleanReq MSHR miss cycles
system.l2.ReadCleanReq_mshr_miss_latency::total     33752500                       # number of ReadCleanReq MSHR miss cycles
system.l2.ReadCleanReq_mshr_miss_rate::.cpu.inst     0.971483                       # mshr miss rate for ReadCleanReq accesses
system.l2.ReadCleanReq_mshr_miss_rate::total     0.971483                       # mshr miss rate for ReadCleanReq accesses
system.l2.ReadCleanReq_avg_mshr_miss_latency::.cpu.inst 66051.859100                       # average ReadCleanReq mshr miss latency
system.l2.ReadCleanReq_avg_mshr_miss_latency::total 66051.859100                       # average ReadCleanReq mshr miss latency
system.l2.ReadSharedReq_hits::.cpu.data         15215                       # number of ReadSharedReq hits
system.l2.ReadSharedReq_hits::total             15215                       # number of ReadSharedReq hits
system.l2.ReadSharedReq_misses::.cpu.data          528                       # number of ReadSharedReq misses
system.l2.ReadSharedReq_misses::total             528                       # number of ReadSharedReq misses
system.l2.ReadSharedReq_miss_latency::.cpu.data     47301500                       # number of ReadSharedReq miss cycles
system.l2.ReadSharedReq_miss_latency::total     47301500                       # number of ReadSharedReq miss cycles
system.l2.ReadSharedReq_accesses::.cpu.data        15743                       # number of ReadSharedReq accesses(hits+misses)
system.l2.ReadSharedReq_accesses::total         15743                       # number of ReadSharedReq accesses(hits+misses)
system.l2.ReadSharedReq_miss_rate::.cpu.data     0.033539                       # miss rate for ReadSharedReq accesses
system.l2.ReadSharedReq_miss_rate::total     0.033539                       # miss rate for ReadSharedReq accesses
system.l2.ReadSharedReq_avg_miss_latency::.cpu.data 89586.174242                       # average ReadSharedReq miss latency
system.l2.ReadSharedReq_avg_miss_latency::total 89586.174242                       # average ReadSharedReq miss latency
system.l2.ReadSharedReq_mshr_hits::.cpu.data            5                       # number of ReadSharedReq MSHR hits
system.l2.ReadSharedReq_mshr_hits::total            5                       # number of ReadSharedReq MSHR hits
system.l2.ReadSharedReq_mshr_misses::.cpu.data          523                       # number of ReadSharedReq MSHR misses
system.l2.ReadSharedReq_mshr_misses::total          523                       # number of ReadSharedReq MSHR misses
system.l2.ReadSharedReq_mshr_miss_latency::.cpu.data     41730500                       # number of ReadSharedReq MSHR miss cycles
system.l2.ReadSharedReq_mshr_miss_latency::total     41730500                       # number of ReadSharedReq MSHR miss cycles
system.l2.ReadSharedReq_mshr_miss_rate::.cpu.data     0.033221                       # mshr miss rate for ReadSharedReq accesses
system.l2.ReadSharedReq_mshr_miss_rate::total     0.033221                       # mshr miss rate for ReadSharedReq accesses
system.l2.ReadSharedReq_avg_mshr_miss_latency::.cpu.data 79790.630975                       # average ReadSharedReq mshr miss latency
system.l2.ReadSharedReq_avg_mshr_miss_latency::total 79790.630975                       # average ReadSharedReq mshr miss latency
system.l2.power_state.pwrStateResidencyTicks::UNDEFINED  57756929000                       # Cumulative time (in ticks) in various power states
system.l2.tags.tagsinuse                 26273.124352                       # Cycle average of tags in use
system.l2.tags.total_refs                      108888                       # Total number of references to valid blocks.
system.l2.tags.sampled_refs                     39849                       # Sample count of references to valid blocks.
system.l2.tags.avg_refs                      2.732515                       # Average number of references to valid blocks.
system.l2.tags.warmup_cycle                     77000                       # Cycle when the warmup percentage was hit.
system.l2.tags.occ_blocks::.writebacks       0.335104                       # Average occupied blocks per requestor
system.l2.tags.occ_blocks::.cpu.inst       331.142151                       # Average occupied blocks per requestor
system.l2.tags.occ_blocks::.cpu.data     25941.647096                       # Average occupied blocks per requestor
system.l2.tags.occ_percent::.writebacks      0.000010                       # Average percentage of cache occupancy
system.l2.tags.occ_percent::.cpu.inst        0.010106                       # Average percentage of cache occupancy
system.l2.tags.occ_percent::.cpu.data        0.791676                       # Average percentage of cache occupancy
system.l2.tags.occ_percent::total            0.801792                       # Average percentage of cache occupancy
system.l2.tags.occ_task_id_blocks::1024         32768                       # Occupied blocks per task id
system.l2.tags.age_task_id_blocks_1024::0            4                       # Occupied blocks per task id
system.l2.tags.age_task_id_blocks_1024::1           34                       # Occupied blocks per task id
system.l2.tags.age_task_id_blocks_1024::2          408                       # Occupied blocks per task id
system.l2.tags.age_task_id_blocks_1024::3         3669                       # Occupied blocks per task id
system.l2.tags.age_task_id_blocks_1024::4        28653                       # Occupied blocks per task id
system.l2.tags.occ_task_id_percent::1024            1                       # Percentage of cache occupancy per task id
system.l2.tags.tag_accesses                    911001                       # Number of tag accesses
system.l2.tags.data_accesses                   911001                       # Number of data accesses
system.l2.tags.power_state.pwrStateResidencyTicks::UNDEFINED  57756929000                       # Cumulative time (in ticks) in various power states
system.mem_ctrls.avgPriority_.writebacks::samples      6486.00                       # Average QoS priority value for accepted requests
system.mem_ctrls.avgPriority_.cpu.inst::samples       511.00                       # Average QoS priority value for accepted requests
system.mem_ctrls.avgPriority_.cpu.data::samples     39334.00                       # Average QoS priority value for accepted requests
system.mem_ctrls.priorityMinLatency      0.000000018750                       # per QoS priority minimum request to response latency (s)
system.mem_ctrls.priorityMaxLatency      0.017790112500                       # per QoS priority maximum request to response latency (s)
system.mem_ctrls.numReadWriteTurnArounds          359                       # Number of turnarounds from READ to WRITE
system.mem_ctrls.numWriteReadTurnArounds          359                       # Number of turnarounds from WRITE to READ
system.mem_ctrls.numStayReadState              100976                       # Number of times bus staying in READ state
system.mem_ctrls.numStayWriteState               6118                       # Number of times bus staying in WRITE state
system.mem_ctrls.readReqs                       39846                       # Number of read requests accepted
system.mem_ctrls.writeReqs                       6486                       # Number of write requests accepted
system.mem_ctrls.readBursts                     39846                       # Number of controller read bursts, including those serviced by the write queue
system.mem_ctrls.writeBursts                     6486                       # Number of controller write bursts, including those merged in the write queue
system.mem_ctrls.servicedByWrQ                      1                       # Number of controller read bursts serviced by the write queue
system.mem_ctrls.mergedWrBursts                     0                       # Number of controller write bursts merged with an existing one
system.mem_ctrls.neitherReadNorWriteReqs            0                       # Number of requests that are neither read nor write
system.mem_ctrls.avgRdQLen                       1.00                       # Average read queue length when enqueuing
system.mem_ctrls.avgWrQLen                       8.46                       # Average write queue length when enqueuing
system.mem_ctrls.numRdRetry                         0                       # Number of times read queue was full causing retry
system.mem_ctrls.numWrRetry                         0                       # Number of times write queue was full causing retry
system.mem_ctrls.readPktSize::0                     0                       # Read request sizes (log2)
system.mem_ctrls.readPktSize::1                     0                       # Read request sizes (log2)
system.mem_ctrls.readPktSize::2                     0                       # Read request sizes (log2)
system.mem_ctrls.readPktSize::3                     0                       # Read request sizes (log2)
system.mem_ctrls.readPktSize::4                     0                       # Read request sizes (log2)
system.mem_ctrls.readPktSize::5                     0                       # Read request sizes (log2)
system.mem_ctrls.readPktSize::6                 39846                       # Read request sizes (log2)
system.mem_ctrls.writePktSize::0                    0                       # Write request sizes (log2)
system.mem_ctrls.writePktSize::1                    0                       # Write request sizes (log2)
system.mem_ctrls.writePktSize::2                    0                       # Write request sizes (log2)
system.mem_ctrls.writePktSize::3                    0                       # Write request sizes (log2)
system.mem_ctrls.writePktSize::4                    0                       # Write request sizes (log2)
system.mem_ctrls.writePktSize::5                    0                       # Write request sizes (log2)
system.mem_ctrls.writePktSize::6                 6486                       # Write request sizes (log2)
system.mem_ctrls.rdQLenPdf::0                   39660                       # What read queue length does an incoming req see
system.mem_ctrls.rdQLenPdf::1                     179                       # What read queue length does an incoming req see
system.mem_ctrls.rdQLenPdf::2                       6                       # What read queue length does an incoming req see
system.mem_ctrls.rdQLenPdf::3                       0                       # What read queue length does an incoming req see
system.mem_ctrls.rdQLenPdf::4                       0                       # What read queue length does an incoming req see
system.mem_ctrls.rdQLenPdf::5                       0                       # What read queue length does an incoming req see
system.mem_ctrls.rdQLenPdf::6                       0                       # What read queue length does an incoming req see
system.mem_ctrls.rdQLenPdf::7                       0                       # What read queue length does an incoming req see
[...]
system.mem_ctrls.dram.bw_write::.writebacks      7187086                       # Write bandwidth from this memory (bytes/s)
system.mem_ctrls.dram.bw_write::total         7187086                       # Write bandwidth from this memory (bytes/s)
system.mem_ctrls.dram.bw_total::.writebacks      7187086                       # Total bandwidth to/from this memory (bytes/s)
system.mem_ctrls.dram.bw_total::.cpu.inst       566235                       # Total bandwidth to/from this memory (bytes/s)
system.mem_ctrls.dram.bw_total::.cpu.data     43586805                       # Total bandwidth to/from this memory (bytes/s)
system.mem_ctrls.dram.bw_total::total        51340126                       # Total bandwidth to/from this memory (bytes/s)
system.mem_ctrls.dram.readBursts                39845                       # Number of DRAM read bursts
system.mem_ctrls.dram.writeBursts                6469                       # Number of DRAM write bursts
system.mem_ctrls.dram.perBankRdBursts::0         2523                       # Per bank write bursts
system.mem_ctrls.dram.perBankRdBursts::1         2488                       # Per bank write bursts
system.mem_ctrls.dram.perBankRdBursts::2         2468                       # Per bank write bursts
system.mem_ctrls.dram.perBankRdBursts::3         2559                       # Per bank write bursts
system.mem_ctrls.dram.perBankRdBursts::4         2482                       # Per bank write bursts
system.mem_ctrls.dram.perBankRdBursts::5         2385                       # Per bank write bursts
system.mem_ctrls.dram.perBankRdBursts::6         2430                       # Per bank write bursts
system.mem_ctrls.dram.perBankRdBursts::7         2489                       # Per bank write bursts
system.mem_ctrls.dram.perBankRdBursts::8         2469                       # Per bank write bursts
system.mem_ctrls.dram.perBankRdBursts::9         2504                       # Per bank write bursts
system.mem_ctrls.dram.perBankRdBursts::10         2495                       # Per bank write bursts
system.mem_ctrls.dram.perBankRdBursts::11         2504                       # Per bank write bursts
system.mem_ctrls.dram.perBankRdBursts::12         2513                       # Per bank write bursts
system.mem_ctrls.dram.perBankRdBursts::13         2473                       # Per bank write bursts
system.mem_ctrls.dram.perBankRdBursts::14         2556                       # Per bank write bursts
system.mem_ctrls.dram.perBankRdBursts::15         2507                       # Per bank write bursts
system.mem_ctrls.dram.perBankWrBursts::0          424                       # Per bank write bursts
system.mem_ctrls.dram.perBankWrBursts::1          410                       # Per bank write bursts
system.mem_ctrls.dram.perBankWrBursts::2          406                       # Per bank write bursts
system.mem_ctrls.dram.perBankWrBursts::3          409                       # Per bank write bursts
system.mem_ctrls.dram.perBankWrBursts::4          409                       # Per bank write bursts
system.mem_ctrls.dram.perBankWrBursts::5          336                       # Per bank write bursts
system.mem_ctrls.dram.perBankWrBursts::6          382                       # Per bank write bursts
system.mem_ctrls.dram.perBankWrBursts::7          413                       # Per bank write bursts
system.mem_ctrls.dram.perBankWrBursts::8          398                       # Per bank write bursts
system.mem_ctrls.dram.perBankWrBursts::9          402                       # Per bank write bursts
system.mem_ctrls.dram.perBankWrBursts::10          410                       # Per bank write bursts
system.mem_ctrls.dram.perBankWrBursts::11          392                       # Per bank write bursts
system.mem_ctrls.dram.perBankWrBursts::12          415                       # Per bank write bursts
system.mem_ctrls.dram.perBankWrBursts::13          404                       # Per bank write bursts
system.mem_ctrls.dram.perBankWrBursts::14          434                       # Per bank write bursts
system.mem_ctrls.dram.perBankWrBursts::15          425                       # Per bank write bursts
system.mem_ctrls.dram.totQLat               323429250                       # Total ticks spent queuing
system.mem_ctrls.dram.totBusLat             199225000                       # Total ticks spent in databus transfers
system.mem_ctrls.dram.totMemAccLat         1070523000                       # Total ticks spent from burst creation until serviced by the DRAM
system.mem_ctrls.dram.avgQLat                 8117.19                       # Average queueing delay per DRAM burst
system.mem_ctrls.dram.avgBusLat               5000.00                       # Average bus latency per DRAM burst
system.mem_ctrls.dram.avgMemAccLat           26867.19                       # Average memory access latency per DRAM burst
system.mem_ctrls.dram.readRowHits               30308                       # Number of row buffer hits during reads
system.mem_ctrls.dram.writeRowHits               5445                       # Number of row buffer hits during writes
system.mem_ctrls.dram.readRowHitRate            76.06                       # Row buffer hit rate for reads
system.mem_ctrls.dram.writeRowHitRate           84.17                       # Row buffer hit rate for writes
system.mem_ctrls.dram.bytesPerActivate::samples        10560                       # Bytes accessed per row activation
system.mem_ctrls.dram.bytesPerActivate::mean   280.678788                       # Bytes accessed per row activation
system.mem_ctrls.dram.bytesPerActivate::gmean   218.275351                       # Bytes accessed per row activation
system.mem_ctrls.dram.bytesPerActivate::stdev   232.315763                       # Bytes accessed per row activation
system.mem_ctrls.dram.bytesPerActivate::0-127         1133     10.73%     10.73% # Bytes accessed per row activation
system.mem_ctrls.dram.bytesPerActivate::128-255         6727     63.70%     74.43% # Bytes accessed per row activation
system.mem_ctrls.dram.bytesPerActivate::256-383          615      5.82%     80.26% # Bytes accessed per row activation
system.mem_ctrls.dram.bytesPerActivate::384-511          341      3.23%     83.48% # Bytes accessed per row activation
system.mem_ctrls.dram.bytesPerActivate::512-639          471      4.46%     87.95% # Bytes accessed per row activation
system.mem_ctrls.dram.bytesPerActivate::640-767          459      4.35%     92.29% # Bytes accessed per row activation
system.mem_ctrls.dram.bytesPerActivate::768-895          165      1.56%     93.85% # Bytes accessed per row activation
system.mem_ctrls.dram.bytesPerActivate::896-1023          445      4.21%     98.07% # Bytes accessed per row activation
system.mem_ctrls.dram.bytesPerActivate::1024-1151          204      1.93%    100.00% # Bytes accessed per row activation
system.mem_ctrls.dram.bytesPerActivate::total        10560                       # Bytes accessed per row activation
system.mem_ctrls.dram.bytesRead               2550080                       # Total number of bytes read from DRAM
system.mem_ctrls.dram.bytesWritten             414016                       # Total number of bytes written to DRAM
system.mem_ctrls.dram.avgRdBW               44.151932                       # Average DRAM read bandwidth in MiBytes/s
system.mem_ctrls.dram.avgWrBW                7.168248                       # Average DRAM write bandwidth in MiBytes/s
system.mem_ctrls.dram.peakBW                 12800.00                       # Theoretical peak bandwidth in MiByte/s
system.mem_ctrls.dram.busUtil                    0.40                       # Data bus utilization in percentage
system.mem_ctrls.dram.busUtilRead                0.34                       # Data bus utilization in percentage for reads
system.mem_ctrls.dram.busUtilWrite               0.06                       # Data bus utilization in percentage for writes
system.mem_ctrls.dram.pageHitRate               77.20                       # Row buffer hit rate, read and write combined
system.mem_ctrls.dram.power_state.pwrStateResidencyTicks::UNDEFINED  57756929000                       # Cumulative time (in ticks) in various power states
system.mem_ctrls.dram.rank0.actEnergy        38191860                       # Energy for activate commands per rank (pJ)
system.mem_ctrls.dram.rank0.preEnergy        20295660                       # Energy for precharge commands per rank (pJ)
system.mem_ctrls.dram.rank0.readEnergy      141543360                       # Energy for read commands per rank (pJ)
system.mem_ctrls.dram.rank0.writeEnergy      16646580                       # Energy for write commands per rank (pJ)
system.mem_ctrls.dram.rank0.refreshEnergy 4558784880.000001                       # Energy for refresh commands per rank (pJ)
system.mem_ctrls.dram.rank0.actBackEnergy  13055494890                       # Energy for active background per rank (pJ)
system.mem_ctrls.dram.rank0.preBackEnergy  11184560160                       # Energy for precharge background per rank (pJ)
system.mem_ctrls.dram.rank0.actPowerDownEnergy            0                       # Energy for active power-down per rank (pJ)
system.mem_ctrls.dram.rank0.prePowerDownEnergy            0                       # Energy for precharge power-down per rank (pJ)
system.mem_ctrls.dram.rank0.selfRefreshEnergy            0                       # Energy for self refresh per rank (pJ)
system.mem_ctrls.dram.rank0.totalEnergy   29015517390                       # Total energy per rank (pJ)
system.mem_ctrls.dram.rank0.averagePower   502.372926                       # Core power per rank (mW)
system.mem_ctrls.dram.rank0.totalIdleTime            0                       # Total Idle time Per DRAM Rank
system.mem_ctrls.dram.rank0.pwrStateTime::IDLE  28964475250                       # Time in different power states
system.mem_ctrls.dram.rank0.pwrStateTime::REF   1928420000                       # Time in different power states
system.mem_ctrls.dram.rank0.pwrStateTime::SREF            0                       # Time in different power states
system.mem_ctrls.dram.rank0.pwrStateTime::PRE_PDN            0                       # Time in different power states
system.mem_ctrls.dram.rank0.pwrStateTime::ACT  26864033750                       # Time in different power states
system.mem_ctrls.dram.rank0.pwrStateTime::ACT_PDN            0                       # Time in different power states
system.mem_ctrls.dram.rank1.actEnergy        37213680                       # Energy for activate commands per rank (pJ)
system.mem_ctrls.dram.rank1.preEnergy        19779540                       # Energy for precharge commands per rank (pJ)
system.mem_ctrls.dram.rank1.readEnergy      142949940                       # Energy for read commands per rank (pJ)
system.mem_ctrls.dram.rank1.writeEnergy      17121600                       # Energy for write commands per rank (pJ)
system.mem_ctrls.dram.rank1.refreshEnergy 4558784880.000001                       # Energy for refresh commands per rank (pJ)
system.mem_ctrls.dram.rank1.actBackEnergy  12909430680                       # Energy for active background per rank (pJ)
system.mem_ctrls.dram.rank1.preBackEnergy  11307561600                       # Energy for precharge background per rank (pJ)
system.mem_ctrls.dram.rank1.actPowerDownEnergy            0                       # Energy for active power-down per rank (pJ)
system.mem_ctrls.dram.rank1.prePowerDownEnergy            0                       # Energy for precharge power-down per rank (pJ)
system.mem_ctrls.dram.rank1.selfRefreshEnergy            0                       # Energy for self refresh per rank (pJ)
system.mem_ctrls.dram.rank1.totalEnergy   28992841920                       # Total energy per rank (pJ)
system.mem_ctrls.dram.rank1.averagePower   501.980324                       # Core power per rank (mW)
system.mem_ctrls.dram.rank1.totalIdleTime            0                       # Total Idle time Per DRAM Rank
system.mem_ctrls.dram.rank1.pwrStateTime::IDLE  29285790250                       # Time in different power states
system.mem_ctrls.dram.rank1.pwrStateTime::REF   1928420000                       # Time in different power states
system.mem_ctrls.dram.rank1.pwrStateTime::SREF            0                       # Time in different power states
system.mem_ctrls.dram.rank1.pwrStateTime::PRE_PDN            0                       # Time in different power states
system.mem_ctrls.dram.rank1.pwrStateTime::ACT  26542718750                       # Time in different power states
system.mem_ctrls.dram.rank1.pwrStateTime::ACT_PDN            0                       # Time in different power states
system.mem_ctrls.power_state.pwrStateResidencyTicks::UNDEFINED  57756929000                       # Cumulative time (in ticks) in various power states
system.membus.trans_dist::ReadResp               1034                       # Transaction distribution
system.membus.trans_dist::WritebackDirty         6486                       # Transaction distribution
system.membus.trans_dist::CleanEvict              114                       # Transaction distribution
system.membus.trans_dist::ReadExReq             38812                       # Transaction distribution
system.membus.trans_dist::ReadExResp            38812                       # Transaction distribution
system.membus.trans_dist::ReadSharedReq          1034                       # Transaction distribution
system.membus.pkt_count_system.l2.mem_side_port::system.mem_ctrls.port        86292                       # Packet count per connected requestor and responder (bytes)
system.membus.pkt_count::total                  86292                       # Packet count per connected requestor and responder (bytes)
system.membus.pkt_size_system.l2.mem_side_port::system.mem_ctrls.port      2965248                       # Cumulative packet size per connected requestor and responder (bytes)
system.membus.pkt_size::total                 2965248                       # Cumulative packet size per connected requestor and responder (bytes)
system.membus.snoops                                0                       # Total snoops (count)
system.membus.snoopTraffic                          0                       # Total snoop traffic (bytes)
system.membus.snoop_fanout::samples             39846                       # Request fanout histogram
system.membus.snoop_fanout::mean                    0                       # Request fanout histogram
system.membus.snoop_fanout::stdev                   0                       # Request fanout histogram
system.membus.snoop_fanout::underflows              0      0.00%      0.00% # Request fanout histogram
system.membus.snoop_fanout::0                   39846    100.00%    100.00% # Request fanout histogram
system.membus.snoop_fanout::1                       0      0.00%    100.00% # Request fanout histogram
system.membus.snoop_fanout::overflows               0      0.00%    100.00% # Request fanout histogram
system.membus.snoop_fanout::min_value               0                       # Request fanout histogram
system.membus.snoop_fanout::max_value               0                       # Request fanout histogram
system.membus.snoop_fanout::total               39846                       # Request fanout histogram
system.membus.power_state.pwrStateResidencyTicks::UNDEFINED  57756929000                       # Cumulative time (in ticks) in various power states
system.membus.reqLayer0.occupancy            82466500                       # Layer occupancy (ticks)
system.membus.reqLayer0.utilization               0.1                       # Layer utilization (%)
system.membus.respLayer1.occupancy          211359250                       # Layer occupancy (ticks)
system.membus.respLayer1.utilization              0.4                       # Layer utilization (%)
system.tol2bus.trans_dist::ReadResp             16269                       # Transaction distribution
system.tol2bus.trans_dist::WritebackDirty        56714                       # Transaction distribution
system.tol2bus.trans_dist::WritebackClean           64                       # Transaction distribution
system.tol2bus.trans_dist::CleanEvict            4019                       # Transaction distribution
system.tol2bus.trans_dist::ReadExReq            38933                       # Transaction distribution
system.tol2bus.trans_dist::ReadExResp           38933                       # Transaction distribution
system.tol2bus.trans_dist::ReadCleanReq           526                       # Transaction distribution
system.tol2bus.trans_dist::ReadSharedReq        15743                       # Transaction distribution
system.tol2bus.pkt_count_system.cpu.icache.mem_side_port::system.l2.cpu_side_port         1116                       # Packet count per connected requestor and responder (bytes)
system.tol2bus.pkt_count_system.cpu.dcache.mem_side_port::system.l2.cpu_side_port       163004                       # Packet count per connected requestor and responder (bytes)
system.tol2bus.pkt_count::total                164120                       # Packet count per connected requestor and responder (bytes)
system.tol2bus.pkt_size_system.cpu.icache.mem_side_port::system.l2.cpu_side_port        37760                       # Cumulative packet size per connected requestor and responder (bytes)
system.tol2bus.pkt_size_system.cpu.dcache.mem_side_port::system.l2.cpu_side_port      6713856                       # Cumulative packet size per connected requestor and responder (bytes)
system.tol2bus.pkt_size::total                6751616                       # Cumulative packet size per connected requestor and responder (bytes)
system.tol2bus.snoops                            7081                       # Total snoops (count)
system.tol2bus.snoopTraffic                    415104                       # Total snoop traffic (bytes)
system.tol2bus.snoop_fanout::samples            62283                       # Request fanout histogram
system.tol2bus.snoop_fanout::mean            0.008221                       # Request fanout histogram
system.tol2bus.snoop_fanout::stdev           0.090826                       # Request fanout histogram
system.tol2bus.snoop_fanout::underflows             0      0.00%      0.00% # Request fanout histogram
system.tol2bus.snoop_fanout::0                  61774     99.18%     99.18% # Request fanout histogram
system.tol2bus.snoop_fanout::1                    506      0.81%    100.00% # Request fanout histogram
system.tol2bus.snoop_fanout::2                      3      0.00%    100.00% # Request fanout histogram
system.tol2bus.snoop_fanout::overflows              0      0.00%    100.00% # Request fanout histogram
system.tol2bus.snoop_fanout::min_value              0                       # Request fanout histogram
system.tol2bus.snoop_fanout::max_value              2                       # Request fanout histogram
system.tol2bus.snoop_fanout::total              62283                       # Request fanout histogram
system.tol2bus.power_state.pwrStateResidencyTicks::UNDEFINED  57756929000                       # Cumulative time (in ticks) in various power states
system.tol2bus.reqLayer0.occupancy          104751000                       # Layer occupancy (ticks)
system.tol2bus.reqLayer0.utilization              0.2                       # Layer utilization (%)
system.tol2bus.respLayer0.occupancy            789499                       # Layer occupancy (ticks)
system.tol2bus.respLayer0.utilization             0.0                       # Layer utilization (%)
system.tol2bus.respLayer1.occupancy          82016495                       # Layer occupancy (ticks)
system.tol2bus.respLayer1.utilization             0.1                       # Layer utilization (%)
system.voltage_domain.voltage                       1                       # Voltage in Volts

---------- End Simulation Statistics   ----------
