
---------- Begin Simulation Statistics ----------
final_tick                                   52813000                       # Number of ticks from beginning of simulation (restored from checkpoints and never reset)
host_inst_rate                                 103233                       # Simulator instruction rate (inst/s)
host_mem_usage                                 641100                       # Number of bytes of host memory used
host_op_rate                                   121811                       # Simulator op (including micro ops) rate (op/s)
host_seconds                                     0.23                       # Real time elapsed on the host
host_tick_rate                              226810298                       # Simulator tick rate (ticks/s)
sim_freq                                 1000000000000                       # Frequency of simulated ticks
sim_insts                                       24019                       # Number of instructions simulated
sim_ops                                         28360                       # Number of ops (including micro ops) simulated
sim_seconds                                  0.000053                       # Number of seconds simulated
sim_ticks                                    52813000                       # Number of ticks simulated
system.cpu.committedInsts                       24019                       # Number of instructions committed
system.cpu.committedOps                         28360                       # Number of ops (including micro ops) committed
system.cpu.cpi                               4.397602                       # CPI: cycles per instruction
system.cpu.discardedOps                          1844                       # Number of ops (including micro ops) which were discarded before commit
system.cpu.idleCycles                           66220                       # Total number of cycles that the object has spent stopped
system.cpu.ipc                               0.227397                       # IPC: instructions per cycle
system.cpu.numCycles                           105626                       # number of cpu cycles simulated
system.cpu.numFetchSuspends                         0                       # Number of times Execute suspended instruction fetching
system.cpu.numWorkItemsCompleted                    0                       # number of work items this cpu completed
system.cpu.numWorkItemsStarted                      0                       # number of work items this cpu started
system.cpu.op_class_0::No_OpClass                   0      0.00%      0.00% # Class of committed instruction
system.cpu.op_class_0::IntAlu                   17208     60.68%     60.68% # Class of committed instruction
system.cpu.op_class_0::IntMult                     29      0.10%     60.78% # Class of committed instruction
system.cpu.op_class_0::IntDiv                       0      0.00%     60.78% # Class of committed instruction
system.cpu.op_class_0::FloatAdd                     0      0.00%     60.78% # Class of committed instruction
system.cpu.op_class_0::FloatCmp                     0      0.00%     60.78% # Class of committed instruction
system.cpu.op_class_0::FloatCvt                     0      0.00%     60.78% # Class of committed instruction
system.cpu.op_class_0::FloatMult                    0      0.00%     60.78% # Class of committed instruction
system.cpu.op_class_0::FloatMultAcc                 0      0.00%     60.78% # Class of committed instruction
system.cpu.op_class_0::FloatDiv                     0      0.00%     60.78% # Class of committed instruction
system.cpu.op_class_0::FloatMisc                    0      0.00%     60.78% # Class of committed instruction
system.cpu.op_class_0::FloatSqrt                    0      0.00%     60.78% # Class of committed instruction
system.cpu.op_class_0::SimdAdd                      0      0.00%     60.78% # Class of committed instruction
system.cpu.op_class_0::SimdAddAcc                   0      0.00%     60.78% # Class of committed instruction
system.cpu.op_class_0::SimdAlu                      0      0.00%     60.78% # Class of committed instruction
system.cpu.op_class_0::SimdCmp                      0      0.00%     60.78% # Class of committed instruction
system.cpu.op_class_0::SimdCvt                      0      0.00%     60.78% # Class of committed instruction
system.cpu.op_class_0::SimdMisc                     0      0.00%     60.78% # Class of committed instruction
system.cpu.op_class_0::SimdMult                     0      0.00%     60.78% # Class of committed instruction
system.cpu.op_class_0::SimdMultAcc                  0      0.00%     60.78% # Class of committed instruction
system.cpu.op_class_0::SimdShift                    0      0.00%     60.78% # Class of committed instruction
system.cpu.op_class_0::SimdShiftAcc                 0      0.00%     60.78% # Class of committed instruction
system.cpu.op_class_0::SimdDiv                      0      0.00%     60.78% # Class of committed instruction
system.cpu.op_class_0::SimdSqrt                     0      0.00%     60.78% # Class of committed instruction
system.cpu.op_class_0::SimdFloatAdd                 0      0.00%     60.78% # Class of committed instruction
system.cpu.op_class_0::SimdFloatAlu                 0      0.00%     60.78% # Class of committed instruction
system.cpu.op_class_0::SimdFloatCmp                 0      0.00%     60.78% # Class of committed instruction
system.cpu.op_class_0::SimdFloatCvt                 0      0.00%     60.78% # Class of committed instruction
system.cpu.op_class_0::SimdFloatDiv                 0      0.00%     60.78% # Class of committed instruction
system.cpu.op_class_0::SimdFloatMisc               11      0.04%     60.82% # Class of committed instruction
system.cpu.op_class_0::SimdFloatMult                0      0.00%     60.82% # Class of committed instruction
system.cpu.op_class_0::SimdFloatMultAcc             0      0.00%     60.82% # Class of committed instruction
system.cpu.op_class_0::SimdFloatSqrt                0      0.00%     60.82% # Class of committed instruction
system.cpu.op_class_0::SimdReduceAdd                0      0.00%     60.82% # Class of committed instruction
system.cpu.op_class_0::SimdReduceAlu                0      0.00%     60.82% # Class of committed instruction
system.cpu.op_class_0::SimdReduceCmp                0      0.00%     60.82% # Class of committed instruction
system.cpu.op_class_0::SimdFloatReduceAdd            0      0.00%     60.82% # Class of committed instruction
system.cpu.op_class_0::SimdFloatReduceCmp            0      0.00%     60.82% # Class of committed instruction
system.cpu.op_class_0::SimdAes                      0      0.00%     60.82% # Class of committed instruction
system.cpu.op_class_0::SimdAesMix                   0      0.00%     60.82% # Class of committed instruction
system.cpu.op_class_0::SimdSha1Hash                 0      0.00%     60.82% # Class of committed instruction
system.cpu.op_class_0::SimdSha1Hash2                0      0.00%     60.82% # Class of committed instruction
system.cpu.op_class_0::SimdSha256Hash               0      0.00%     60.82% # Class of committed instruction
system.cpu.op_class_0::SimdSha256Hash2              0      0.00%     60.82% # Class of committed instruction
system.cpu.op_class_0::SimdShaSigma2                0      0.00%     60.82% # Class of committed instruction
system.cpu.op_class_0::SimdShaSigma3                0      0.00%     60.82% # Class of committed instruction
system.cpu.op_class_0::SimdPredAlu                  0      0.00%     60.82% # Class of committed instruction
system.cpu.op_class_0::MemRead                   6297     22.20%     83.02% # Class of committed instruction
system.cpu.op_class_0::MemWrite                  4815     16.98%    100.00% # Class of committed instruction
system.cpu.op_class_0::FloatMemRead                 0      0.00%    100.00% # Class of committed instruction
system.cpu.op_class_0::FloatMemWrite                0      0.00%    100.00% # Class of committed instruction
system.cpu.op_class_0::IprAccess                    0      0.00%    100.00% # Class of committed instruction
system.cpu.op_class_0::InstPrefetch                 0      0.00%    100.00% # Class of committed instruction
system.cpu.op_class_0::total                    28360                       # Class of committed instruction
system.cpu.tickCycles                           39406                       # Number of cycles that the object actually ticked
system.cpu.workload.numSyscalls                    36                       # Number of system calls
system.membus.snoop_filter.hit_multi_requests           33                       # Number of requests hitting in the snoop filter with multiple (>1) holders of the requested data.
system.membus.snoop_filter.hit_multi_snoops            0                       # Number of snoops hitting in the snoop filter with multiple (>1) holders of the requested data.
system.membus.snoop_filter.hit_single_requests          382                       # Number of requests hitting in the snoop filter with a single holder of the requested data.
system.membus.snoop_filter.hit_single_snoops            0                       # Number of snoops hitting in the snoop filter with a single holder of the requested data.
system.membus.snoop_filter.tot_requests          1273                       # Total number of requests made to the snoop filter.
system.membus.snoop_filter.tot_snoops               0                       # Total number of snoops made to the snoop filter.
system.clk_domain.clock                          1000                       # Clock period in ticks
system.cpu.branchPred.lookups                    6455                       # Number of BP lookups
system.cpu.branchPred.condPredicted              4126                       # Number of conditional branches predicted
system.cpu.branchPred.condIncorrect               619                       # Number of conditional branches incorrect
system.cpu.branchPred.BTBLookups                 2943                       # Number of BTB lookups
system.cpu.branchPred.BTBHits                    1885                       # Number of BTB hits
system.cpu.branchPred.BTBHitPct             64.050289                       # BTB Hit Percentage
system.cpu.branchPred.RASUsed                     692                       # Number of times the RAS was used to get a target.
system.cpu.branchPred.RASIncorrect                  1                       # Number of incorrect RAS predictions.
system.cpu.branchPred.indirectLookups             360                       # Number of indirect predictor lookups.
system.cpu.branchPred.indirectHits                244                       # Number of indirect target hits.
system.cpu.branchPred.indirectMisses              116                       # Number of indirect misses.
system.cpu.branchPred.indirectMispredicted          104                       # Number of mispredicted indirect branches.
system.cpu.dcache.demand_hits::.cpu.data        10670                       # number of demand (read+write) hits
system.cpu.dcache.demand_hits::total            10670                       # number of demand (read+write) hits
system.cpu.dcache.overall_hits::.cpu.data        10684                       # number of overall hits
system.cpu.dcache.overall_hits::total           10684                       # number of overall hits
system.cpu.dcache.demand_misses::.cpu.data          270                       # number of demand (read+write) misses
system.cpu.dcache.demand_misses::total            270                       # number of demand (read+write) misses
system.cpu.dcache.overall_misses::.cpu.data          275                       # number of overall misses
system.cpu.dcache.overall_misses::total           275                       # number of overall misses
system.cpu.dcache.demand_miss_latency::.cpu.data     15837500                       # number of demand (read+write) miss cycles
system.cpu.dcache.demand_miss_latency::total     15837500                       # number of demand (read+write) miss cycles
system.cpu.dcache.overall_miss_latency::.cpu.data     15837500                       # number of overall miss cycles
system.cpu.dcache.overall_miss_latency::total     15837500                       # number of overall miss cycles
system.cpu.dcache.demand_accesses::.cpu.data        10940                       # number of demand (read+write) accesses
system.cpu.dcache.demand_accesses::total        10940                       # number of demand (read+write) accesses
system.cpu.dcache.overall_accesses::.cpu.data        10959                       # number of overall (read+write) accesses
system.cpu.dcache.overall_accesses::total        10959                       # number of overall (read+write) accesses
system.cpu.dcache.demand_miss_rate::.cpu.data     0.024680                       # miss rate for demand accesses
system.cpu.dcache.demand_miss_rate::total     0.024680                       # miss rate for demand accesses
system.cpu.dcache.overall_miss_rate::.cpu.data     0.025094                       # miss rate for overall accesses
system.cpu.dcache.overall_miss_rate::total     0.025094                       # miss rate for overall accesses
system.cpu.dcache.demand_avg_miss_latency::.cpu.data 58657.407407                       # average overall miss latency
system.cpu.dcache.demand_avg_miss_latency::total 58657.407407                       # average overall miss latency
system.cpu.dcache.overall_avg_miss_latency::.cpu.data 57590.909091                       # average overall miss latency
system.cpu.dcache.overall_avg_miss_latency::total 57590.909091                       # average overall miss latency
system.cpu.dcache.blocked_cycles::no_mshrs            0                       # number of cycles access was blocked
system.cpu.dcache.blocked_cycles::no_targets            0                       # number of cycles access was blocked
system.cpu.dcache.blocked::no_mshrs                 0                       # number of cycles access was blocked
system.cpu.dcache.blocked::no_targets               0                       # number of cycles access was blocked
system.cpu.dcache.avg_blocked_cycles::no_mshrs          nan                       # average number of cycles each access was blocked
system.cpu.dcache.avg_blocked_cycles::no_targets          nan                       # average number of cycles each access was blocked
system.cpu.dcache.demand_mshr_hits::.cpu.data           51                       # number of demand (read+write) MSHR hits
system.cpu.dcache.demand_mshr_hits::total           51                       # number of demand (read+write) MSHR hits
system.cpu.dcache.overall_mshr_hits::.cpu.data           51                       # number of overall MSHR hits
system.cpu.dcache.overall_mshr_hits::total           51                       # number of overall MSHR hits
system.cpu.dcache.demand_mshr_misses::.cpu.data          219                       # number of demand (read+write) MSHR misses
system.cpu.dcache.demand_mshr_misses::total          219                       # number of demand (read+write) MSHR misses
system.cpu.dcache.overall_mshr_misses::.cpu.data          223                       # number of overall MSHR misses
system.cpu.dcache.overall_mshr_misses::total          223                       # number of overall MSHR misses
system.cpu.dcache.demand_mshr_miss_latency::.cpu.data     12844500                       # number of demand (read+write) MSHR miss cycles
system.cpu.dcache.demand_mshr_miss_latency::total     12844500                       # number of demand (read+write) MSHR miss cycles
system.cpu.dcache.overall_mshr_miss_latency::.cpu.data     13060000                       # number of overall MSHR miss cycles
system.cpu.dcache.overall_mshr_miss_latency::total     13060000                       # number of overall MSHR miss cycles
system.cpu.dcache.demand_mshr_miss_rate::.cpu.data     0.020018                       # mshr miss rate for demand accesses
system.cpu.dcache.demand_mshr_miss_rate::total     0.020018                       # mshr miss rate for demand accesses
system.cpu.dcache.overall_mshr_miss_rate::.cpu.data     0.020349                       # mshr miss rate for overall accesses
system.cpu.dcache.overall_mshr_miss_rate::total     0.020349                       # mshr miss rate for overall accesses
system.cpu.dcache.demand_avg_mshr_miss_latency::.cpu.data 58650.684932                       # average overall mshr miss latency
system.cpu.dcache.demand_avg_mshr_miss_latency::total 58650.684932                       # average overall mshr miss latency
system.cpu.dcache.overall_avg_mshr_miss_latency::.cpu.data 58565.022422                       # average overall mshr miss latency
system.cpu.dcache.overall_avg_mshr_miss_latency::total 58565.022422                       # average overall mshr miss latency
system.cpu.dcache.replacements                      2                       # number of replacements
system.cpu.dcache.ReadReq_hits::.cpu.data         6249                       # number of ReadReq hits
system.cpu.dcache.ReadReq_hits::total            6249                       # number of ReadReq hits
system.cpu.dcache.ReadReq_misses::.cpu.data          171                       # number of ReadReq misses
system.cpu.dcache.ReadReq_misses::total           171                       # number of ReadReq misses
system.cpu.dcache.ReadReq_miss_latency::.cpu.data     10405000                       # number of ReadReq miss cycles
system.cpu.dcache.ReadReq_miss_latency::total     10405000                       # number of ReadReq miss cycles
system.cpu.dcache.ReadReq_accesses::.cpu.data         6420                       # number of ReadReq accesses(hits+misses)
system.cpu.dcache.ReadReq_accesses::total         6420                       # number of ReadReq accesses(hits+misses)
system.cpu.dcache.ReadReq_miss_rate::.cpu.data     0.026636                       # miss rate for ReadReq accesses
system.cpu.dcache.ReadReq_miss_rate::total     0.026636                       # miss rate for ReadReq accesses
system.cpu.dcache.ReadReq_avg_miss_latency::.cpu.data 60847.953216                       # average ReadReq miss latency
system.cpu.dcache.ReadReq_avg_miss_latency::total 60847.953216                       # average ReadReq miss latency
system.cpu.dcache.ReadReq_mshr_hits::.cpu.data           15                       # number of ReadReq MSHR hits
system.cpu.dcache.ReadReq_mshr_hits::total           15                       # number of ReadReq MSHR hits
system.cpu.dcache.ReadReq_mshr_misses::.cpu.data          156                       # number of ReadReq MSHR misses
system.cpu.dcache.ReadReq_mshr_misses::total          156                       # number of ReadReq MSHR misses
system.cpu.dcache.ReadReq_mshr_miss_latency::.cpu.data      9460000                       # number of ReadReq MSHR miss cycles
system.cpu.dcache.ReadReq_mshr_miss_latency::total      9460000                       # number of ReadReq MSHR miss cycles
system.cpu.dcache.ReadReq_mshr_miss_rate::.cpu.data     0.024299                       # mshr miss rate for ReadReq accesses
system.cpu.dcache.ReadReq_mshr_miss_rate::total     0.024299                       # mshr miss rate for ReadReq accesses
system.cpu.dcache.ReadReq_avg_mshr_miss_latency::.cpu.data 60641.025641                       # average ReadReq mshr miss latency
system.cpu.dcache.ReadReq_avg_mshr_miss_latency::total 60641.025641                       # average ReadReq mshr miss latency
system.cpu.dcache.WriteReq_hits::.cpu.data         4421                       # number of WriteReq hits
system.cpu.dcache.WriteReq_hits::total           4421                       # number of WriteReq hits
system.cpu.dcache.WriteReq_misses::.cpu.data           99                       # number of WriteReq misses
system.cpu.dcache.WriteReq_misses::total           99                       # number of WriteReq misses
system.cpu.dcache.WriteReq_miss_latency::.cpu.data      5432500                       # number of WriteReq miss cycles
system.cpu.dcache.WriteReq_miss_latency::total      5432500                       # number of WriteReq miss cycles
system.cpu.dcache.WriteReq_accesses::.cpu.data         4520                       # number of WriteReq accesses(hits+misses)
system.cpu.dcache.WriteReq_accesses::total         4520                       # number of WriteReq accesses(hits+misses)
system.cpu.dcache.WriteReq_miss_rate::.cpu.data     0.021903                       # miss rate for WriteReq accesses
system.cpu.dcache.WriteReq_miss_rate::total     0.021903                       # miss rate for WriteReq accesses
system.cpu.dcache.WriteReq_avg_miss_latency::.cpu.data 54873.737374                       # average WriteReq miss latency
system.cpu.dcache.WriteReq_avg_miss_latency::total 54873.737374                       # average WriteReq miss latency
system.cpu.dcache.WriteReq_mshr_hits::.cpu.data           36                       # number of WriteReq MSHR hits
system.cpu.dcache.WriteReq_mshr_hits::total           36                       # number of WriteReq MSHR hits
system.cpu.dcache.WriteReq_mshr_misses::.cpu.data           63                       # number of WriteReq MSHR misses
system.cpu.dcache.WriteReq_mshr_misses::total           63                       # number of WriteReq MSHR misses
system.cpu.dcache.WriteReq_mshr_miss_latency::.cpu.data      3384500                       # number of WriteReq MSHR miss cycles
system.cpu.dcache.WriteReq_mshr_miss_latency::total      3384500                       # number of WriteReq MSHR miss cycles
system.cpu.dcache.WriteReq_mshr_miss_rate::.cpu.data     0.013938                       # mshr miss rate for WriteReq accesses
system.cpu.dcache.WriteReq_mshr_miss_rate::total     0.013938                       # mshr miss rate for WriteReq accesses
system.cpu.dcache.WriteReq_avg_mshr_miss_latency::.cpu.data 53722.222222                       # average WriteReq mshr miss latency
system.cpu.dcache.WriteReq_avg_mshr_miss_latency::total 53722.222222                       # average WriteReq mshr miss latency
system.cpu.dcache.SoftPFReq_hits::.cpu.data           14                       # number of SoftPFReq hits
system.cpu.dcache.SoftPFReq_hits::total            14                       # number of SoftPFReq hits
system.cpu.dcache.SoftPFReq_misses::.cpu.data            5                       # number of SoftPFReq misses
system.cpu.dcache.SoftPFReq_misses::total            5                       # number of SoftPFReq misses
system.cpu.dcache.SoftPFReq_accesses::.cpu.data           19                       # number of SoftPFReq accesses(hits+misses)
system.cpu.dcache.SoftPFReq_accesses::total           19                       # number of SoftPFReq accesses(hits+misses)
system.cpu.dcache.SoftPFReq_miss_rate::.cpu.data     0.263158                       # miss rate for SoftPFReq accesses
system.cpu.dcache.SoftPFReq_miss_rate::total     0.263158                       # miss rate for SoftPFReq accesses
system.cpu.dcache.SoftPFReq_mshr_misses::.cpu.data            4                       # number of SoftPFReq MSHR misses
system.cpu.dcache.SoftPFReq_mshr_misses::total            4                       # number of SoftPFReq MSHR misses
system.cpu.dcache.SoftPFReq_mshr_miss_latency::.cpu.data       215500                       # number of SoftPFReq MSHR miss cycles
system.cpu.dcache.SoftPFReq_mshr_miss_latency::total       215500                       # number of SoftPFReq MSHR miss cycles
system.cpu.dcache.SoftPFReq_mshr_miss_rate::.cpu.data     0.210526                       # mshr miss rate for SoftPFReq accesses
system.cpu.dcache.SoftPFReq_mshr_miss_rate::total     0.210526                       # mshr miss rate for SoftPFReq accesses
system.cpu.dcache.SoftPFReq_avg_mshr_miss_latency::.cpu.data        53875                       # average SoftPFReq mshr miss latency
system.cpu.dcache.SoftPFReq_avg_mshr_miss_latency::total        53875                       # average SoftPFReq mshr miss latency
system.cpu.dcache.LoadLockedReq_hits::.cpu.data           67                       # number of LoadLockedReq hits
system.cpu.dcache.LoadLockedReq_hits::total           67                       # number of LoadLockedReq hits
system.cpu.dcache.LoadLockedReq_misses::.cpu.data            1                       # number of LoadLockedReq misses
system.cpu.dcache.LoadLockedReq_misses::total            1                       # number of LoadLockedReq misses
system.cpu.dcache.LoadLockedReq_miss_latency::.cpu.data        64000                       # number of LoadLockedReq miss cycles
system.cpu.dcache.LoadLockedReq_miss_latency::total        64000                       # number of LoadLockedReq miss cycles
system.cpu.dcache.LoadLockedReq_accesses::.cpu.data           68                       # number of LoadLockedReq accesses(hits+misses)
system.cpu.dcache.LoadLockedReq_accesses::total           68                       # number of LoadLockedReq accesses(hits+misses)
system.cpu.dcache.LoadLockedReq_miss_rate::.cpu.data     0.014706                       # miss rate for LoadLockedReq accesses
system.cpu.dcache.LoadLockedReq_miss_rate::total     0.014706                       # miss rate for LoadLockedReq accesses
system.cpu.dcache.LoadLockedReq_avg_miss_latency::.cpu.data        64000                       # average LoadLockedReq miss latency
system.cpu.dcache.LoadLockedReq_avg_miss_latency::total        64000                       # average LoadLockedReq miss latency
system.cpu.dcache.LoadLockedReq_mshr_misses::.cpu.data            1                       # number of LoadLockedReq MSHR misses
system.cpu.dcache.LoadLockedReq_mshr_misses::total            1                       # number of LoadLockedReq MSHR misses
system.cpu.dcache.LoadLockedReq_mshr_miss_latency::.cpu.data        63000                       # number of LoadLockedReq MSHR miss cycles
system.cpu.dcache.LoadLockedReq_mshr_miss_latency::total        63000                       # number of LoadLockedReq MSHR miss cycles
system.cpu.dcache.LoadLockedReq_mshr_miss_rate::.cpu.data     0.014706                       # mshr miss rate for LoadLockedReq accesses
system.cpu.dcache.LoadLockedReq_mshr_miss_rate::total     0.014706                       # mshr miss rate for LoadLockedReq accesses
system.cpu.dcache.LoadLockedReq_avg_mshr_miss_latency::.cpu.data        63000                       # average LoadLockedReq mshr miss latency
system.cpu.dcache.LoadLockedReq_avg_mshr_miss_latency::total        63000                       # average LoadLockedReq mshr miss latency
system.cpu.dcache.StoreCondReq_hits::.cpu.data           68                       # number of StoreCondReq hits
system.cpu.dcache.StoreCondReq_hits::total           68                       # number of StoreCondReq hits
system.cpu.dcache.StoreCondReq_accesses::.cpu.data           68                       # number of StoreCondReq accesses(hits+misses)
system.cpu.dcache.StoreCondReq_accesses::total           68                       # number of StoreCondReq accesses(hits+misses)
system.cpu.dcache.power_state.pwrStateResidencyTicks::UNDEFINED     52813000                       # Cumulative time (in ticks) in various power states
system.cpu.dcache.tags.tagsinuse           153.764434                       # Cycle average of tags in use
system.cpu.dcache.tags.total_refs               11043                       # Total number of references to valid blocks.
system.cpu.dcache.tags.sampled_refs               224                       # Sample count of references to valid blocks.
system.cpu.dcache.tags.avg_refs             49.299107                       # Average number of references to valid blocks.
system.cpu.dcache.tags.warmup_cycle            195000                       # Cycle when the warmup percentage was hit.
system.cpu.dcache.tags.occ_blocks::.cpu.data   153.764434                       # Average occupied blocks per requestor
system.cpu.dcache.tags.occ_percent::.cpu.data     0.150161                       # Average percentage of cache occupancy
system.cpu.dcache.tags.occ_percent::total     0.150161                       # Average percentage of cache occupancy
system.cpu.dcache.tags.occ_task_id_blocks::1024          222                       # Occupied blocks per task id
system.cpu.dcache.tags.age_task_id_blocks_1024::0           15                       # Occupied blocks per task id
system.cpu.dcache.tags.age_task_id_blocks_1024::1          207                       # Occupied blocks per task id
system.cpu.dcache.tags.occ_task_id_percent::1024     0.216797                       # Percentage of cache occupancy per task id
system.cpu.dcache.tags.tag_accesses             22414                       # Number of tag accesses
system.cpu.dcache.tags.data_accesses            22414                       # Number of data accesses
system.cpu.dcache.tags.power_state.pwrStateResidencyTicks::UNDEFINED     52813000                       # Cumulative time (in ticks) in various power states
system.cpu.dtb.instHits                             0                       # ITB inst hits
system.cpu.dtb.instMisses                           0                       # ITB inst misses
system.cpu.dtb.readHits                             0                       # DTB read hits
system.cpu.dtb.readMisses                           0                       # DTB read misses
system.cpu.dtb.writeHits                            0                       # DTB write hits
system.cpu.dtb.writeMisses                          0                       # DTB write misses
system.cpu.dtb.inserts                              0                       # Number of times an entry is inserted into the TLB
system.cpu.dtb.flushTlb                             0                       # Number of times complete TLB was flushed
system.cpu.dtb.flushTlbMva                          0                       # Number of times TLB was flushed by MVA
system.cpu.dtb.flushTlbMvaAsid                      0                       # Number of times TLB was flushed by MVA & ASID
system.cpu.dtb.flushTlbAsid                         0                       # Number of times TLB was flushed by ASID
system.cpu.dtb.flushedEntries                       0                       # Number of entries that have been flushed from TLB
system.cpu.dtb.alignFaults                          0                       # Number of TLB faults due to alignment restrictions
system.cpu.dtb.prefetchFaults                       0                       # Number of TLB faults due to prefetch
system.cpu.dtb.domainFaults                         0                       # Number of TLB faults due to domain restrictions
system.cpu.dtb.permsFaults                          0                       # Number of TLB faults due to permissions restrictions
system.cpu.dtb.readAccesses                         0                       # DTB read accesses
system.cpu.dtb.writeAccesses                        0                       # DTB write accesses
system.cpu.dtb.instAccesses                         0                       # ITB inst accesses
system.cpu.dtb.hits                                 0                       # Total TLB (inst and data) hits
system.cpu.dtb.misses                               0                       # Total TLB (inst and data) misses
system.cpu.dtb.accesses                             0                       # Total TLB (inst and data) accesses
system.cpu.dtb.stage2_mmu.stage2_tlb.instHits            0                       # ITB inst hits
system.cpu.dtb.stage2_mmu.stage2_tlb.instMisses            0                       # ITB inst misses
system.cpu.dtb.stage2_mmu.stage2_tlb.readHits            0                       # DTB read hits
system.cpu.dtb.stage2_mmu.stage2_tlb.readMisses            0                       # DTB read misses
system.cpu.dtb.stage2_mmu.stage2_tlb.writeHits            0                       # DTB write hits
system.cpu.dtb.stage2_mmu.stage2_tlb.writeMisses            0                       # DTB write misses
system.cpu.dtb.stage2_mmu.stage2_tlb.inserts            0                       # Number of times an entry is inserted into the TLB
system.cpu.dtb.stage2_mmu.stage2_tlb.flushTlb            0                       # Number of times complete TLB was flushed
system.cpu.dtb.stage2_mmu.stage2_tlb.flushTlbMva            0                       # Number of times TLB was flushed by MVA
system.cpu.dtb.stage2_mmu.stage2_tlb.flushTlbMvaAsid            0                       # Number of times TLB was flushed by MVA & ASID
system.cpu.dtb.stage2_mmu.stage2_tlb.flushTlbAsid            0                       # Number of times TLB was flushed by ASID
system.cpu.dtb.stage2_mmu.stage2_tlb.flushedEntries            0                       # Number of entries that have been flushed from TLB
system.cpu.dtb.stage2_mmu.stage2_tlb.alignFaults            0                       # Number of TLB faults due to alignment restrictions
system.cpu.dtb.stage2_mmu.stage2_tlb.prefetchFaults            0                       # Number of TLB faults due to prefetch
system.cpu.dtb.stage2_mmu.stage2_tlb.domainFaults            0                       # Number of TLB faults due to domain restrictions
system.cpu.dtb.stage2_mmu.stage2_tlb.permsFaults            0                       # Number of TLB faults due to permissions restrictions
system.cpu.dtb.stage2_mmu.stage2_tlb.readAccesses            0                       # DTB read accesses
system.cpu.dtb.stage2_mmu.stage2_tlb.writeAccesses            0                       # DTB write accesses
system.cpu.dtb.stage2_mmu.stage2_tlb.instAccesses            0                       # ITB inst accesses
system.cpu.dtb.stage2_mmu.stage2_tlb.hits            0                       # Total TLB (inst and data) hits
system.cpu.dtb.stage2_mmu.stage2_tlb.misses            0                       # Total TLB (inst and data) misses
system.cpu.dtb.stage2_mmu.stage2_tlb.accesses            0                       # Total TLB (inst and data) accesses
system.cpu.dtb.stage2_mmu.stage2_tlb.walker.walks            0                       # Table walker walks requested
system.cpu.dtb.stage2_mmu.stage2_tlb.walker.requestOrigin_Requested::Data            0                       # Table walker requests started/completed, data/inst
system.cpu.dtb.stage2_mmu.stage2_tlb.walker.requestOrigin_Requested::Inst            0                       # Table walker requests started/completed, data/inst
system.cpu.dtb.stage2_mmu.stage2_tlb.walker.requestOrigin_Requested::total            0                       # Table walker requests started/completed, data/inst
system.cpu.dtb.stage2_mmu.stage2_tlb.walker.requestOrigin_Completed::Data            0                       # Table walker requests started/completed, data/inst
system.cpu.dtb.stage2_mmu.stage2_tlb.walker.requestOrigin_Completed::Inst            0                       # Table walker requests started/completed, data/inst
system.cpu.dtb.stage2_mmu.stage2_tlb.walker.requestOrigin_Completed::total            0                       # Table walker requests started/completed, data/inst
system.cpu.dtb.stage2_mmu.stage2_tlb.walker.requestOrigin::total            0                       # Table walker requests started/completed, data/inst
system.cpu.dtb.stage2_mmu.stage2_tlb.walker.power_state.pwrStateResidencyTicks::UNDEFINED     52813000                       # Cumulative time (in ticks) in various power states
system.cpu.dtb.walker.walks                         0                       # Table walker walks requested
system.cpu.dtb.walker.requestOrigin_Requested::Data            0                       # Table walker requests started/completed, data/inst
system.cpu.dtb.walker.requestOrigin_Requested::Inst            0                       # Table walker requests started/completed, data/inst
system.cpu.dtb.walker.requestOrigin_Requested::total            0                       # Table walker requests started/completed, data/inst
system.cpu.dtb.walker.requestOrigin_Completed::Data            0                       # Table walker requests started/completed, data/inst
system.cpu.dtb.walker.requestOrigin_Completed::Inst            0                       # Table walker requests started/completed, data/inst
system.cpu.dtb.walker.requestOrigin_Completed::total            0                       # Table walker requests started/completed, data/inst
system.cpu.dtb.walker.requestOrigin::total            0                       # Table walker requests started/completed, data/inst
system.cpu.dtb.walker.power_state.pwrStateResidencyTicks::UNDEFINED     52813000                       # Cumulative time (in ticks) in various power states
system.cpu.fetch2.intInstructions               15537                       # Number of integer instructions successfully decoded
system.cpu.fetch2.fpInstructions                    0                       # Number of floating point instructions successfully decoded
system.cpu.fetch2.vecInstructions                   0                       # Number of SIMD instructions successfully decoded
system.cpu.fetch2.loadInstructions               6503                       # Number of memory load instructions successfully decoded
system.cpu.fetch2.storeInstructions              2874                       # Number of memory store instructions successfully decoded
system.cpu.fetch2.amoInstructions                   0                       # Number of memory atomic instructions successfully decoded
system.cpu.icache.demand_hits::.cpu.inst         8309                       # number of demand (read+write) hits
system.cpu.icache.demand_hits::total             8309                       # number of demand (read+write) hits
system.cpu.icache.overall_hits::.cpu.inst         8309                       # number of overall hits
system.cpu.icache.overall_hits::total            8309                       # number of overall hits
system.cpu.icache.demand_misses::.cpu.inst          715                       # number of demand (read+write) misses
system.cpu.icache.demand_misses::total            715                       # number of demand (read+write) misses
system.cpu.icache.overall_misses::.cpu.inst          715                       # number of overall misses
system.cpu.icache.overall_misses::total           715                       # number of overall misses
system.cpu.icache.demand_miss_latency::.cpu.inst     32907500                       # number of demand (read+write) miss cycles
system.cpu.icache.demand_miss_latency::total     32907500                       # number of demand (read+write) miss cycles
system.cpu.icache.overall_miss_latency::.cpu.inst     32907500                       # number of overall miss cycles
system.cpu.icache.overall_miss_latency::total     32907500                       # number of overall miss cycles
system.cpu.icache.demand_accesses::.cpu.inst         9024                       # number of demand (read+write) accesses
system.cpu.icache.demand_accesses::total         9024                       # number of demand (read+write) accesses
system.cpu.icache.overall_accesses::.cpu.inst         9024                       # number of overall (read+write) accesses
system.cpu.icache.overall_accesses::total         9024                       # number of overall (read+write) accesses
system.cpu.icache.demand_miss_rate::.cpu.inst     0.079233                       # miss rate for demand accesses
system.cpu.icache.demand_miss_rate::total     0.079233                       # miss rate for demand accesses
system.cpu.icache.overall_miss_rate::.cpu.inst     0.079233                       # miss rate for overall accesses
system.cpu.icache.overall_miss_rate::total     0.079233                       # miss rate for overall accesses
system.cpu.icache.demand_avg_miss_latency::.cpu.inst 46024.475524                       # average overall miss latency
system.cpu.icache.demand_avg_miss_latency::total 46024.475524                       # average overall miss latency
system.cpu.icache.overall_avg_miss_latency::.cpu.inst 46024.475524                       # average overall miss latency
system.cpu.icache.overall_avg_miss_latency::total 46024.475524                       # average overall miss latency
system.cpu.icache.blocked_cycles::no_mshrs            0                       # number of cycles access was blocked
system.cpu.icache.blocked_cycles::no_targets            0                       # number of cycles access was blocked
system.cpu.icache.blocked::no_mshrs                 0                       # number of cycles access was blocked
system.cpu.icache.blocked::no_targets               0                       # number of cycles access was blocked
system.cpu.icache.avg_blocked_cycles::no_mshrs          nan                       # average number of cycles each access was blocked
system.cpu.icache.avg_blocked_cycles::no_targets          nan                       # average number of cycles each access was blocked
system.cpu.icache.writebacks::.writebacks          332                       # number of writebacks
system.cpu.icache.writebacks::total               332                       # number of writebacks
system.cpu.icache.demand_mshr_misses::.cpu.inst          715                       # number of demand (read+write) MSHR misses
system.cpu.icache.demand_mshr_misses::total          715                       # number of demand (read+write) MSHR misses
system.cpu.icache.overall_mshr_misses::.cpu.inst          715                       # number of overall MSHR misses
system.cpu.icache.overall_mshr_misses::total          715                       # number of overall MSHR misses
system.cpu.icache.demand_mshr_miss_latency::.cpu.inst     32193500                       # number of demand (read+write) MSHR miss cycles
system.cpu.icache.demand_mshr_miss_latency::total     32193500                       # number of demand (read+write) MSHR miss cycles
system.cpu.icache.overall_mshr_miss_latency::.cpu.inst     32193500                       # number of overall MSHR miss cycles
system.cpu.icache.overall_mshr_miss_latency::total     32193500                       # number of overall MSHR miss cycles
system.cpu.icache.demand_mshr_miss_rate::.cpu.inst     0.079233                       # mshr miss rate for demand accesses
system.cpu.icache.demand_mshr_miss_rate::total     0.079233                       # mshr miss rate for demand accesses
system.cpu.icache.overall_mshr_miss_rate::.cpu.inst     0.079233                       # mshr miss rate for overall accesses
system.cpu.icache.overall_mshr_miss_rate::total     0.079233                       # mshr miss rate for overall accesses
system.cpu.icache.demand_avg_mshr_miss_latency::.cpu.inst 45025.874126                       # average overall mshr miss latency
system.cpu.icache.demand_avg_mshr_miss_latency::total 45025.874126                       # average overall mshr miss latency
system.cpu.icache.overall_avg_mshr_miss_latency::.cpu.inst 45025.874126                       # average overall mshr miss latency
system.cpu.icache.overall_avg_mshr_miss_latency::total 45025.874126                       # average overall mshr miss latency
system.cpu.icache.replacements                    332                       # number of replacements
system.cpu.icache.ReadReq_hits::.cpu.inst         8309                       # number of ReadReq hits
system.cpu.icache.ReadReq_hits::total            8309                       # number of ReadReq hits
system.cpu.icache.ReadReq_misses::.cpu.inst          715                       # number of ReadReq misses
system.cpu.icache.ReadReq_misses::total           715                       # number of ReadReq misses
system.cpu.icache.ReadReq_miss_latency::.cpu.inst     32907500                       # number of ReadReq miss cycles
system.cpu.icache.ReadReq_miss_latency::total     32907500                       # number of ReadReq miss cycles
system.cpu.icache.ReadReq_accesses::.cpu.inst         9024                       # number of ReadReq accesses(hits+misses)
system.cpu.icache.ReadReq_accesses::total         9024                       # number of ReadReq accesses(hits+misses)
system.cpu.icache.ReadReq_miss_rate::.cpu.inst     0.079233                       # miss rate for ReadReq accesses
system.cpu.icache.ReadReq_miss_rate::total     0.079233                       # miss rate for ReadReq accesses
system.cpu.icache.ReadReq_avg_miss_latency::.cpu.inst 46024.475524                       # average ReadReq miss latency
system.cpu.icache.ReadReq_avg_miss_latency::total 46024.475524                       # average ReadReq miss latency
system.cpu.icache.ReadReq_mshr_misses::.cpu.inst          715                       # number of ReadReq MSHR misses
system.cpu.icache.ReadReq_mshr_misses::total          715                       # number of ReadReq MSHR misses
system.cpu.icache.ReadReq_mshr_miss_latency::.cpu.inst     32193500                       # number of ReadReq MSHR miss cycles
system.cpu.icache.ReadReq_mshr_miss_latency::total     32193500                       # number of ReadReq MSHR miss cycles
system.cpu.icache.ReadReq_mshr_miss_rate::.cpu.inst     0.079233                       # mshr miss rate for ReadReq accesses
system.cpu.icache.ReadReq_mshr_miss_rate::total     0.079233                       # mshr miss rate for ReadReq accesses
system.cpu.icache.ReadReq_avg_mshr_miss_latency::.cpu.inst 45025.874126                       # average ReadReq mshr miss latency
system.cpu.icache.ReadReq_avg_mshr_miss_latency::total 45025.874126                       # average ReadReq mshr miss latency
system.cpu.icache.power_state.pwrStateResidencyTicks::UNDEFINED     52813000                       # Cumulative time (in ticks) in various power states
system.cpu.icache.tags.tagsinuse           249.434914                       # Cycle average of tags in use
system.cpu.icache.tags.total_refs                9023                       # Total number of references to valid blocks.
system.cpu.icache.tags.sampled_refs               714                       # Sample count of references to valid blocks.
system.cpu.icache.tags.avg_refs             12.637255                       # Average number of references to valid blocks.
system.cpu.icache.tags.warmup_cycle             77000                       # Cycle when the warmup percentage was hit.
system.cpu.icache.tags.occ_blocks::.cpu.inst   249.434914                       # Average occupied blocks per requestor
system.cpu.icache.tags.occ_percent::.cpu.inst     0.487178                       # Average percentage of cache occupancy
system.cpu.icache.tags.occ_percent::total     0.487178                       # Average percentage of cache occupancy
system.cpu.icache.tags.occ_task_id_blocks::1024          382                       # Occupied blocks per task id
system.cpu.icache.tags.age_task_id_blocks_1024::0           59                       # Occupied blocks per task id
system.cpu.icache.tags.age_task_id_blocks_1024::1          323                       # Occupied blocks per task id
system.cpu.icache.tags.occ_task_id_percent::1024     0.746094                       # Percentage of cache occupancy per task id
system.cpu.icache.tags.tag_accesses             18762                       # Number of tag accesses
system.cpu.icache.tags.data_accesses            18762                       # Number of data accesses
system.cpu.icache.tags.power_state.pwrStateResidencyTicks::UNDEFINED     52813000                       # Cumulative time (in ticks) in various power states
system.cpu.itb.instHits                             0                       # ITB inst hits
system.cpu.itb.instMisses                           0                       # ITB inst misses
system.cpu.itb.readHits                             0                       # DTB read hits
system.cpu.itb.readMisses                           0                       # DTB read misses
system.cpu.itb.writeHits                            0                       # DTB write hits
system.cpu.itb.writeMisses                          0                       # DTB write misses
system.cpu.itb.inserts                              0                       # Number of times an entry is inserted into the TLB
system.cpu.itb.flushTlb                             0                       # Number of times complete TLB was flushed
system.cpu.itb.flushTlbMva                          0                       # Number of times TLB was flushed by MVA
system.cpu.itb.flushTlbMvaAsid                      0                       # Number of times TLB was flushed by MVA & ASID
system.cpu.itb.flushTlbAsid                         0                       # Number of times TLB was flushed by ASID
system.cpu.itb.flushedEntries                       0                       # Number of entries that have been flushed from TLB
system.cpu.itb.alignFaults                          0                       # Number of TLB faults due to alignment restrictions
system.cpu.itb.prefetchFaults                       0                       # Number of TLB faults due to prefetch
system.cpu.itb.domainFaults                         0                       # Number of TLB faults due to domain restrictions
system.cpu.itb.permsFaults                          0                       # Number of TLB faults due to permissions restrictions
system.cpu.itb.readAccesses                         0                       # DTB read accesses
system.cpu.itb.writeAccesses                        0                       # DTB write accesses
system.cpu.itb.instAccesses                         0                       # ITB inst accesses
system.cpu.itb.hits                                 0                       # Total TLB (inst and data) hits
system.cpu.itb.misses                               0                       # Total TLB (inst and data) misses
system.cpu.itb.accesses                             0                       # Total TLB (inst and data) accesses
system.cpu.itb.stage2_mmu.stage2_tlb.instHits            0                       # ITB inst hits
system.cpu.itb.stage2_mmu.stage2_tlb.instMisses            0                       # ITB inst misses
system.cpu.itb.stage2_mmu.stage2_tlb.readHits            0                       # DTB read hits
system.cpu.itb.stage2_mmu.stage2_tlb.readMisses            0                       # DTB read misses
system.cpu.itb.stage2_mmu.stage2_tlb.writeHits            0                       # DTB write hits
system.cpu.itb.stage2_mmu.stage2_tlb.writeMisses            0                       # DTB write misses
system.cpu.itb.stage2_mmu.stage2_tlb.inserts            0                       # Number of times an entry is inserted into the TLB
system.cpu.itb.stage2_mmu.stage2_tlb.flushTlb            0                       # Number of times complete TLB was flushed
system.cpu.itb.stage2_mmu.stage2_tlb.flushTlbMva            0                       # Number of times TLB was flushed by MVA
system.cpu.itb.stage2_mmu.stage2_tlb.flushTlbMvaAsid            0                       # Number of times TLB was flushed by MVA & ASID
system.cpu.itb.stage2_mmu.stage2_tlb.flushTlbAsid            0                       # Number of times TLB was flushed by ASID
system.cpu.itb.stage2_mmu.stage2_tlb.flushedEntries            0                       # Number of entries that have been flushed from TLB
system.cpu.itb.stage2_mmu.stage2_tlb.alignFaults            0                       # Number of TLB faults due to alignment restrictions
system.cpu.itb.stage2_mmu.stage2_tlb.prefetchFaults            0                       # Number of TLB faults due to prefetch
system.cpu.itb.stage2_mmu.stage2_tlb.domainFaults            0                       # Number of TLB faults due to domain restrictions
system.cpu.itb.stage2_mmu.stage2_tlb.permsFaults            0                       # Number of TLB faults due to permissions restrictions
system.cpu.itb.stage2_mmu.stage2_tlb.readAccesses            0                       # DTB read accesses
system.cpu.itb.stage2_mmu.stage2_tlb.writeAccesses            0                       # DTB write accesses
system.cpu.itb.stage2_mmu.stage2_tlb.instAccesses            0                       # ITB inst accesses
system.cpu.itb.stage2_mmu.stage2_tlb.hits            0                       # Total TLB (inst and data) hits
system.cpu.itb.stage2_mmu.stage2_tlb.misses            0                       # Total TLB (inst and data) misses
system.cpu.itb.stage2_mmu.stage2_tlb.accesses            0                       # Total TLB (inst and data) accesses
system.cpu.itb.stage2_mmu.stage2_tlb.walker.walks            0                       # Table walker walks requested
system.cpu.itb.stage2_mmu.stage2_tlb.walker.requestOrigin_Requested::Data            0                       # Table walker requests started/completed, data/inst
system.cpu.itb.stage2_mmu.stage2_tlb.walker.requestOrigin_Requested::Inst            0                       # Table walker requests started/completed, data/inst
system.cpu.itb.stage2_mmu.stage2_tlb.walker.requestOrigin_Requested::total            0                       # Table walker requests started/completed, data/inst
system.cpu.itb.stage2_mmu.stage2_tlb.walker.requestOrigin_Completed::Data            0                       # Table walker requests started/completed, data/inst
system.cpu.itb.stage2_mmu.stage2_tlb.walker.requestOrigin_Completed::Inst            0                       # Table walker requests started/completed, data/inst
system.cpu.itb.stage2_mmu.stage2_tlb.walker.requestOrigin_Completed::total            0                       # Table walker requests started/completed, data/inst
system.cpu.itb.stage2_mmu.stage2_tlb.walker.requestOrigin::total            0                       # Table walker requests started/completed, data/inst
system.cpu.itb.stage2_mmu.stage2_tlb.walker.power_state.pwrStateResidencyTicks::UNDEFINED     52813000                       # Cumulative time (in ticks) in various power states
system.cpu.itb.walker.walks                         0                       # Table walker walks requested
system.cpu.itb.walker.requestOrigin_Requested::Data            0                       # Table walker requests started/completed, data/inst
system.cpu.itb.walker.requestOrigin_Requested::Inst            0                       # Table walker requests started/completed, data/inst
system.cpu.itb.walker.requestOrigin_Requested::total            0                       # Table walker requests started/completed, data/inst
system.cpu.itb.walker.requestOrigin_Completed::Data            0                       # Table walker requests started/completed, data/inst
system.cpu.itb.walker.requestOrigin_Completed::Inst            0                       # Table walker requests started/completed, data/inst
system.cpu.itb.walker.requestOrigin_Completed::total            0                       # Table walker requests started/completed, data/inst
system.cpu.itb.walker.requestOrigin::total            0                       # Table walker requests started/completed, data/inst
system.cpu.itb.walker.power_state.pwrStateResidencyTicks::UNDEFINED     52813000                       # Cumulative time (in ticks) in various power states
system.cpu.power_state.pwrStateResidencyTicks::ON     52813000                       # Cumulative time (in ticks) in various power states
system.cpu.thread_0.numInsts                    24019                       # Number of Instructions committed
system.cpu.thread_0.numOps                      28360                       # Number of Ops committed
system.cpu.thread_0.numMemRefs                      0                       # Number of Memory References
system.cpu_clk_domain.clock                       500                       # Clock period in ticks
system.cpu_voltage_domain.voltage                   1                       # Voltage in Volts
system.mem_ctrls.avgPriority_.writebacks::samples        99.00                       # Average QoS priority value for accepted requests
system.mem_ctrls.avgPriority_.cpu.inst::samples       497.00                       # Average QoS priority value for accepted requests
system.mem_ctrls.avgPriority_.cpu.data::samples       224.00                       # Average QoS priority value for accepted requests
system.mem_ctrls.priorityMinLatency      0.000000017492                       # per QoS priority minimum request to response latency (s)
system.mem_ctrls.priorityMaxLatency      0.000088327652                       # per QoS priority maximum request to response latency (s)
system.mem_ctrls.numReadWriteTurnArounds            2                       # Number of turnarounds from READ to WRITE
system.mem_ctrls.numWriteReadTurnArounds            3                       # Number of turnarounds from WRITE to READ
system.mem_ctrls.numStayReadState                1747                       # Number of times bus staying in READ state
system.mem_ctrls.numStayWriteState                 42                       # Number of times bus staying in WRITE state
system.mem_ctrls.readReqs                         939                       # Number of read requests accepted
system.mem_ctrls.writeReqs                        299                       # Number of write requests accepted
system.mem_ctrls.readBursts                       939                       # Number of controller read bursts, including those serviced by the write queue
system.mem_ctrls.writeBursts                      299                       # Number of controller write bursts, including those merged in the write queue
system.mem_ctrls.servicedByWrQ                    218                       # Number of controller read bursts serviced by the write queue
system.mem_ctrls.mergedWrBursts                   200                       # Number of controller write bursts merged with an existing one
system.mem_ctrls.neitherReadNorWriteReqs            0                       # Number of requests that are neither read nor write
system.mem_ctrls.avgRdQLen                       1.17                       # Average read queue length when enqueuing
system.mem_ctrls.avgWrQLen                      36.15                       # Average write queue length when enqueuing
system.mem_ctrls.numRdRetry                         0                       # Number of times read queue was full causing retry
system.mem_ctrls.numWrRetry                         0                       # Number of times write queue was full causing retry
system.mem_ctrls.readPktSize::0                     0                       # Read request sizes (log2)
system.mem_ctrls.readPktSize::1                     0                       # Read request sizes (log2)
system.mem_ctrls.readPktSize::2                     0                       # Read request sizes (log2)
system.mem_ctrls.readPktSize::3                     0                       # Read request sizes (log2)
system.mem_ctrls.readPktSize::4                     0                       # Read request sizes (log2)
system.mem_ctrls.readPktSize::5                     0                       # Read request sizes (log2)
system.mem_ctrls.readPktSize::6                   939                       # Read request sizes (log2)
system.mem_ctrls.writePktSize::0                    0                       # Write request sizes (log2)
system.mem_ctrls.writePktSize::1                    0                       # Write request sizes (log2)
system.mem_ctrls.writePktSize::2                    0                       # Write request sizes (log2)
system.mem_ctrls.writePktSize::3                    0                       # Write request sizes (log2)
system.mem_ctrls.writePktSize::4                    0                       # Write request sizes (log2)
system.mem_ctrls.writePktSize::5                    0                       # Write request sizes (log2)
system.mem_ctrls.writePktSize::6                  299                       # Write request sizes (log2)
system.mem_ctrls.rdQLenPdf::0                     572                       # What read queue length does an incoming req see
system.mem_ctrls.rdQLenPdf::1                     141                       # What read queue length does an incoming req see
system.mem_ctrls.rdQLenPdf::2                       8                       # What read queue length does an incoming req see
system.mem_ctrls.rdQLenPdf::3                       0                       # What read queue length does an incoming req see
system.mem_ctrls.rdQLenPdf::4                       0                       # What read queue length does an incoming req see
system.mem_ctrls.rdQLenPdf::5                       0                       # What read queue length does an incoming req see
system.mem_ctrls.rdQLenPdf::6                       0                       # What read queue length does an incoming req see
system.mem_ctrls.rdQLenPdf::7                       0                       # What read queue length does an incoming req see
system.mem_ctrls.rdQLenPdf::8                       0                       # What read queue length does an incoming req see
system.mem_ctrls.rdQLenPdf::9                       0                       # What read queue length does an incoming req see
system.mem_ctrls.rdQLenPdf::10                      0                       # What read queue length does an incoming req see
system.mem_ctrls.rdQLenPdf::11                      0                       # What read queue length does an incoming req see
system.mem_ctrls.rdQLenPdf::12                      0                       # What read queue length does an incoming req see
system.mem_ctrls.rdQLenPdf::13                      0                       # What read queue length does an incoming req see
system.mem_ctrls.rdQLenPdf::14                      0                       # What read queue length does an incoming req see
system.mem_ctrls.rdQLenPdf::15                      0                       # What read queue length does an incoming req see
system.mem_ctrls.rdQLenPdf::16                      0                       # What read queue length does an incoming req see
system.mem_ctrls.rdQLenPdf::17                      0                       # What read queue length does an incoming req see
system.mem_ctrls.rdQLenPdf::18                      0                       # What read queue length does an incoming req see
system.mem_ctrls.rdQLenPdf::19                      0                       # What read queue length does an incoming req see
system.mem_ctrls.rdQLenPdf::20                      0                       # What read queue length does an incoming req see
system.mem_ctrls.rdQLenPdf::21                      0                       # What read queue length does an incoming req see
system.mem_ctrls.rdQLenPdf::22                      0                       # What read queue length does an incoming req see
system.mem_ctrls.rdQLenPdf::23                      0                       # What read queue length does an incoming req see
system.mem_ctrls.rdQLenPdf::24                      0                       # What read queue length does an incoming req see
system.mem_ctrls.rdQLenPdf::25                      0                       # What read queue length does an incoming req see
system.mem_ctrls.rdQLenPdf::26                      0                       # What read queue length does an incoming req see
system.mem_ctrls.rdQLenPdf::27                      0                       # What read queue length does an incoming req see
system.mem_ctrls.rdQLenPdf::28                      0                       # What read queue length does an incoming req see
system.mem_ctrls.rdQLenPdf::29                      0                       # What read queue length does an incoming req see
system.mem_ctrls.rdQLenPdf::30                      0                       # What read queue length does an incoming req see
system.mem_ctrls.rdQLenPdf::31                      0                       # What read queue length does an incoming req see
system.mem_ctrls.rdQLenPdf::32                      0                       # What read queue length does an incoming req see
system.mem_ctrls.rdQLenPdf::33                      0                       # What read queue length does an incoming req see
system.mem_ctrls.rdQLenPdf::34                      0                       # What read queue length does an incoming req see
system.mem_ctrls.rdQLenPdf::35                      0                       # What read queue length does an incoming req see
system.mem_ctrls.rdQLenPdf::36                      0                       # What read queue length does an incoming req see
system.mem_ctrls.rdQLenPdf::37                      0                       # What read queue length does an incoming req see
system.mem_ctrls.rdQLenPdf::38                      0                       # What read queue length does an incoming req see
system.mem_ctrls.rdQLenPdf::39                      0                       # What read queue length does an incoming req see
system.mem_ctrls.rdQLenPdf::40                      0                       # What read queue length does an incoming req see
system.mem_ctrls.rdQLenPdf::41                      0                       # What read queue length does an incoming req see
system.mem_ctrls.rdQLenPdf::42                      0                       # What read queue length does an incoming req see
system.mem_ctrls.rdQLenPdf::43                      0                       # What read queue length does an incoming req see
system.mem_ctrls.rdQLenPdf::44                      0                       # What read queue length does an incoming req see
system.mem_ctrls.rdQLenPdf::45                      0                       # What read queue length does an incoming req see
system.mem_ctrls.rdQLenPdf::46                      0                       # What read queue length does an incoming req see
system.mem_ctrls.rdQLenPdf::47                      0                       # What read queue length does an incoming req see
system.mem_ctrls.rdQLenPdf::48                      0                       # What read queue length does an incoming req see
system.mem_ctrls.rdQLenPdf::49                      0                       # What read queue length does an incoming req see
system.mem_ctrls.rdQLenPdf::50                      0                       # What read queue length does an incoming req see
system.mem_ctrls.rdQLenPdf::51                      0                       # What read queue length does an incoming req see
system.mem_ctrls.rdQLenPdf::52                      0                       # What read queue length does an incoming req see
system.mem_ctrls.rdQLenPdf::53                      0                       # What read queue length does an incoming req see
system.mem_ctrls.rdQLenPdf::54                      0                       # What read queue length does an incoming req see
system.mem_ctrls.rdQLenPdf::55                      0                       # What read queue length does an incoming req see
system.mem_ctrls.rdQLenPdf::56                      0                       # What read queue length does an incoming req see
system.mem_ctrls.rdQLenPdf::57                      0                       # What read queue length does an incoming req see
system.mem_ctrls.rdQLenPdf::58                      0                       # What read queue length does an incoming req see
system.mem_ctrls.rdQLenPdf::59                      0                       # What read queue length does an incoming req see
system.mem_ctrls.rdQLenPdf::60                      0                       # What read queue length does an incoming req see
system.mem_ctrls.rdQLenPdf::61                      0                       # What read queue length does an incoming req see
system.mem_ctrls.rdQLenPdf::62                      0                       # What read queue length does an incoming req see
system.mem_ctrls.rdQLenPdf::63                      0                       # What read queue length does an incoming req see
system.mem_ctrls.wrQLenPdf::0                       1                       # What write queue length does an incoming req see
system.mem_ctrls.wrQLenPdf::1                       1                       # What write queue length does an incoming req see
system.mem_ctrls.wrQLenPdf::2                       1                       # What write queue length does an incoming req see
system.mem_ctrls.wrQLenPdf::3                       1                       # What write queue length does an incoming req see
system.mem_ctrls.wrQLenPdf::4                       1                       # What write queue length does an incoming req see
system.mem_ctrls.wrQLenPdf::5                       1                       # What write queue length does an incoming req see
system.mem_ctrls.wrQLenPdf::6                       1                       # What write queue length does an incoming req see
system.mem_ctrls.wrQLenPdf::7                       1                       # What write queue length does an incoming req see
system.mem_ctrls.wrQLenPdf::8                       1                       # What write queue length does an incoming req see
system.mem_ctrls.wrQLenPdf::9                       1                       # What write queue length does an incoming req see
system.mem_ctrls.wrQLenPdf::10                      1                       # What write queue length does an incoming req see
system.mem_ctrls.wrQLenPdf::11                      1                       # What write queue length does an incoming req see
system.mem_ctrls.wrQLenPdf::12                      1                       # What write queue length does an incoming req see
system.mem_ctrls.wrQLenPdf::13                      1                       # What write queue length does an incoming req see
system.mem_ctrls.wrQLenPdf::14                      1                       # What write queue length does an incoming req see
system.mem_ctrls.wrQLenPdf::15                      1                       # What write queue length does an incoming req see
system.mem_ctrls.wrQLenPdf::16                      1                       # What write queue length does an incoming req see
system.mem_ctrls.wrQLenPdf::17                      1                       # What write queue length does an incoming req see
system.mem_ctrls.wrQLenPdf::18                      1                       # What write queue length does an incoming req see
system.mem_ctrls.wrQLenPdf::19                      1                       # What write queue length does an incoming req see
system.mem_ctrls.wrQLenPdf::20                      1                       # What write queue length does an incoming req see
system.mem_ctrls.wrQLenPdf::21                      1                       # What write queue length does an incoming req see
system.mem_ctrls.wrQLenPdf::22                      1                       # What write queue length does an incoming req see
system.mem_ctrls.wrQLenPdf::23                      1                       # What write queue length does an incoming req see
system.mem_ctrls.wrQLenPdf::24                      1                       # What write queue length does an incoming req see
system.mem_ctrls.wrQLenPdf::25                      1                       # What write queue length does an incoming req see
system.mem_ctrls.wrQLenPdf::26                      1                       # What write queue length does an incoming req see
system.mem_ctrls.wrQLenPdf::27                      1                       # What write queue length does an incoming req see
system.mem_ctrls.wrQLenPdf::28                      1                       # What write queue length does an incoming req see
system.mem_ctrls.wrQLenPdf::29                      1                       # What write queue length does an incoming req see
system.mem_ctrls.wrQLenPdf::30                      1                       # What write queue length does an incoming req see
system.mem_ctrls.wrQLenPdf::31                      1                       # What write queue length does an incoming req see
system.mem_ctrls.wrQLenPdf::32                      1                       # What write queue length does an incoming req see
system.mem_ctrls.wrQLenPdf::33                      1                       # What write queue length does an incoming req see
system.mem_ctrls.wrQLenPdf::34                      1                       # What write queue length does an incoming req see
system.mem_ctrls.wrQLenPdf::35                      1                       # What write queue length does an incoming req see
system.mem_ctrls.wrQLenPdf::36                      1                       # What write queue length does an incoming req see
system.mem_ctrls.wrQLenPdf::37                      1                       # What write queue length does an incoming req see
system.mem_ctrls.wrQLenPdf::38                      1                       # What write queue length does an incoming req see
system.mem_ctrls.wrQLenPdf::39                      1                       # What write queue length does an incoming req see
system.mem_ctrls.wrQLenPdf::40                      1                       # What write queue length does an incoming req see
system.mem_ctrls.wrQLenPdf::41                      1                       # What write queue length does an incoming req see
system.mem_ctrls.wrQLenPdf::42                      1                       # What write queue length does an incoming req see
system.mem_ctrls.wrQLenPdf::43                      1                       # What write queue length does an incoming req see
system.mem_ctrls.wrQLenPdf::44                      1                       # What write queue length does an incoming req see
system.mem_ctrls.wrQLenPdf::45                      1                       # What write queue length does an incoming req see
system.mem_ctrls.wrQLenPdf::46                      1                       # What write queue length does an incoming req see
system.mem_ctrls.wrQLenPdf::47                      2                       # What write queue length does an incoming req see
system.mem_ctrls.wrQLenPdf::48                      2                       # What write queue length does an incoming req see
system.mem_ctrls.wrQLenPdf::49                      3                       # What write queue length does an incoming req see
system.mem_ctrls.wrQLenPdf::50                      3                       # What write queue length does an incoming req see
system.mem_ctrls.wrQLenPdf::51                      3                       # What write queue length does an incoming req see
system.mem_ctrls.wrQLenPdf::52                      3                       # What write queue length does an incoming req see
system.mem_ctrls.wrQLenPdf::53                      3                       # What write queue length does an incoming req see
system.mem_ctrls.wrQLenPdf::54                      3                       # What write queue length does an incoming req see
system.mem_ctrls.wrQLenPdf::55                      3                       # What write queue length does an incoming req see
system.mem_ctrls.wrQLenPdf::56                      3                       # What write queue length does an incoming req see
system.mem_ctrls.wrQLenPdf::57                      3                       # What write queue length does an incoming req see
system.mem_ctrls.wrQLenPdf::58                      3                       # What write queue length does an incoming req see
system.mem_ctrls.wrQLenPdf::59                      3                       # What write queue length does an incoming req see
system.mem_ctrls.wrQLenPdf::60                      3                       # What write queue length does an incoming req see
system.mem_ctrls.wrQLenPdf::61                      3                       # What write queue length does an incoming req see
system.mem_ctrls.wrQLenPdf::62                      3                       # What write queue length does an incoming req see
system.mem_ctrls.wrQLenPdf::63                      3                       # What write queue length does an incoming req see
system.mem_ctrls.wrQLenPdf::64                      3                       # What write queue length does an incoming req see
system.mem_ctrls.wrQLenPdf::65                      0                       # What write queue length does an incoming req see
system.mem_ctrls.wrQLenPdf::66                      0                       # What write queue length does an incoming req see
system.mem_ctrls.wrQLenPdf::67                      0                       # What write queue length does an incoming req see
system.mem_ctrls.wrQLenPdf::68                      0                       # What write queue length does an incoming req see
system.mem_ctrls.wrQLenPdf::69                      0                       # What write queue length does an incoming req see
system.mem_ctrls.wrQLenPdf::70                      0                       # What write queue length does an incoming req see
system.mem_ctrls.wrQLenPdf::71                      0                       # What write queue length does an incoming req see
system.mem_ctrls.wrQLenPdf::72                      0                       # What write queue length does an incoming req see
system.mem_ctrls.wrQLenPdf::73                      0                       # What write queue length does an incoming req see
system.mem_ctrls.wrQLenPdf::74                      0                       # What write queue length does an incoming req see
system.mem_ctrls.wrQLenPdf::75                      0                       # What write queue length does an incoming req see
system.mem_ctrls.wrQLenPdf::76                      0                       # What write queue length does an incoming req see
system.mem_ctrls.wrQLenPdf::77                      0                       # What write queue length does an incoming req see
system.mem_ctrls.wrQLenPdf::78                      0                       # What write queue length does an incoming req see
system.mem_ctrls.wrQLenPdf::79                      0                       # What write queue length does an incoming req see
system.mem_ctrls.wrQLenPdf::80                      0                       # What write queue length does an incoming req see
system.mem_ctrls.wrQLenPdf::81                      0                       # What write queue length does an incoming req see
system.mem_ctrls.wrQLenPdf::82                      0                       # What write queue length does an incoming req see
system.mem_ctrls.wrQLenPdf::83                      0                       # What write queue length does an incoming req see
system.mem_ctrls.wrQLenPdf::84                      0                       # What write queue length does an incoming req see
system.mem_ctrls.wrQLenPdf::85                      0                       # What write queue length does an incoming req see
system.mem_ctrls.wrQLenPdf::86                      0                       # What write queue length does an incoming req see
system.mem_ctrls.wrQLenPdf::87                      0                       # What write queue length does an incoming req see
system.mem_ctrls.wrQLenPdf::88                      0                       # What write queue length does an incoming req see
system.mem_ctrls.wrQLenPdf::89                      0                       # What write queue length does an incoming req see
system.mem_ctrls.wrQLenPdf::90                      0                       # What write queue length does an incoming req see
system.mem_ctrls.wrQLenPdf::91                      0                       # What write queue length does an incoming req see
system.mem_ctrls.wrQLenPdf::92                      0                       # What write queue length does an incoming req see
system.mem_ctrls.wrQLenPdf::93                      0                       # What write queue length does an incoming req see
[...]
system.mem_ctrls.dram.bw_inst_read::.cpu.inst    865241513                       # Instruction read bandwidth from this memory (bytes/s)
system.mem_ctrls.dram.bw_inst_read::total    865241513                       # Instruction read bandwidth from this memory (bytes/s)
system.mem_ctrls.dram.bw_total::.cpu.inst    865241513                       # Total bandwidth to/from this memory (bytes/s)
system.mem_ctrls.dram.bw_total::.cpu.data    271448318                       # Total bandwidth to/from this memory (bytes/s)
system.mem_ctrls.dram.bw_total::total      1136689830                       # Total bandwidth to/from this memory (bytes/s)
system.mem_ctrls.dram.readBursts                  720                       # Number of DRAM read bursts
system.mem_ctrls.dram.writeBursts                  45                       # Number of DRAM write bursts
system.mem_ctrls.dram.perBankRdBursts::0           73                       # Per bank write bursts
system.mem_ctrls.dram.perBankRdBursts::1            9                       # Per bank write bursts
system.mem_ctrls.dram.perBankRdBursts::2            1                       # Per bank write bursts
system.mem_ctrls.dram.perBankRdBursts::3           46                       # Per bank write bursts
system.mem_ctrls.dram.perBankRdBursts::4           47                       # Per bank write bursts
system.mem_ctrls.dram.perBankRdBursts::5           21                       # Per bank write bursts
system.mem_ctrls.dram.perBankRdBursts::6            0                       # Per bank write bursts
system.mem_ctrls.dram.perBankRdBursts::7           10                       # Per bank write bursts
system.mem_ctrls.dram.perBankRdBursts::8           18                       # Per bank write bursts
system.mem_ctrls.dram.perBankRdBursts::9           41                       # Per bank write bursts
system.mem_ctrls.dram.perBankRdBursts::10           36                       # Per bank write bursts
system.mem_ctrls.dram.perBankRdBursts::11           40                       # Per bank write bursts
system.mem_ctrls.dram.perBankRdBursts::12           49                       # Per bank write bursts
system.mem_ctrls.dram.perBankRdBursts::13           22                       # Per bank write bursts
system.mem_ctrls.dram.perBankRdBursts::14           17                       # Per bank write bursts
system.mem_ctrls.dram.perBankRdBursts::15           39                       # Per bank write bursts
system.mem_ctrls.dram.perBankRdBursts::16            9                       # Per bank write bursts
system.mem_ctrls.dram.perBankRdBursts::17           71                       # Per bank write bursts
system.mem_ctrls.dram.perBankRdBursts::18           15                       # Per bank write bursts
system.mem_ctrls.dram.perBankRdBursts::19            0                       # Per bank write bursts
system.mem_ctrls.dram.perBankRdBursts::20            0                       # Per bank write bursts
system.mem_ctrls.dram.perBankRdBursts::21            1                       # Per bank write bursts
system.mem_ctrls.dram.perBankRdBursts::22            0                       # Per bank write bursts
system.mem_ctrls.dram.perBankRdBursts::23           22                       # Per bank write bursts
system.mem_ctrls.dram.perBankRdBursts::24           71                       # Per bank write bursts
system.mem_ctrls.dram.perBankRdBursts::25           28                       # Per bank write bursts
system.mem_ctrls.dram.perBankRdBursts::26           17                       # Per bank write bursts
system.mem_ctrls.dram.perBankRdBursts::27            1                       # Per bank write bursts
system.mem_ctrls.dram.perBankRdBursts::28            0                       # Per bank write bursts
system.mem_ctrls.dram.perBankRdBursts::29            0                       # Per bank write bursts
system.mem_ctrls.dram.perBankRdBursts::30            9                       # Per bank write bursts
system.mem_ctrls.dram.perBankRdBursts::31            7                       # Per bank write bursts
system.mem_ctrls.dram.perBankWrBursts::0            7                       # Per bank write bursts
system.mem_ctrls.dram.perBankWrBursts::1            0                       # Per bank write bursts
system.mem_ctrls.dram.perBankWrBursts::2            0                       # Per bank write bursts
system.mem_ctrls.dram.perBankWrBursts::3            2                       # Per bank write bursts
system.mem_ctrls.dram.perBankWrBursts::4            2                       # Per bank write bursts
system.mem_ctrls.dram.perBankWrBursts::5            1                       # Per bank write bursts
system.mem_ctrls.dram.perBankWrBursts::6            0                       # Per bank write bursts
system.mem_ctrls.dram.perBankWrBursts::7            0                       # Per bank write bursts
system.mem_ctrls.dram.perBankWrBursts::8            0                       # Per bank write bursts
system.mem_ctrls.dram.perBankWrBursts::9            3                       # Per bank write bursts
system.mem_ctrls.dram.perBankWrBursts::10            6                       # Per bank write bursts
system.mem_ctrls.dram.perBankWrBursts::11            1                       # Per bank write bursts
system.mem_ctrls.dram.perBankWrBursts::12            0                       # Per bank write bursts
system.mem_ctrls.dram.perBankWrBursts::13            0                       # Per bank write bursts
system.mem_ctrls.dram.perBankWrBursts::14            5                       # Per bank write bursts
system.mem_ctrls.dram.perBankWrBursts::15            4                       # Per bank write bursts
system.mem_ctrls.dram.perBankWrBursts::16            4                       # Per bank write bursts
system.mem_ctrls.dram.perBankWrBursts::17            7                       # Per bank write bursts
system.mem_ctrls.dram.perBankWrBursts::18            0                       # Per bank write bursts
system.mem_ctrls.dram.perBankWrBursts::19            0                       # Per bank write bursts
system.mem_ctrls.dram.perBankWrBursts::20            0                       # Per bank write bursts
system.mem_ctrls.dram.perBankWrBursts::21            0                       # Per bank write bursts
system.mem_ctrls.dram.perBankWrBursts::22            0                       # Per bank write bursts
system.mem_ctrls.dram.perBankWrBursts::23            0                       # Per bank write bursts
system.mem_ctrls.dram.perBankWrBursts::24            3                       # Per bank write bursts
system.mem_ctrls.dram.perBankWrBursts::25            0                       # Per bank write bursts
system.mem_ctrls.dram.perBankWrBursts::26            0                       # Per bank write bursts
system.mem_ctrls.dram.perBankWrBursts::27            0                       # Per bank write bursts
system.mem_ctrls.dram.perBankWrBursts::28            0                       # Per bank write bursts
system.mem_ctrls.dram.perBankWrBursts::29            0                       # Per bank write bursts
system.mem_ctrls.dram.perBankWrBursts::30            0                       # Per bank write bursts
system.mem_ctrls.dram.perBankWrBursts::31            0                       # Per bank write bursts
system.mem_ctrls.dram.totQLat                 4747678                       # Total ticks spent queuing
system.mem_ctrls.dram.totBusLat               2399040                       # Total ticks spent in databus transfers
system.mem_ctrls.dram.totMemAccLat           17341918                       # Total ticks spent from burst creation until serviced by the DRAM
system.mem_ctrls.dram.avgQLat                 6594.00                       # Average queueing delay per DRAM burst
system.mem_ctrls.dram.avgBusLat               3332.00                       # Average bus latency per DRAM burst
system.mem_ctrls.dram.avgMemAccLat           24086.00                       # Average memory access latency per DRAM burst
system.mem_ctrls.dram.readRowHits                 616                       # Number of row buffer hits during reads
system.mem_ctrls.dram.writeRowHits                 36                       # Number of row buffer hits during writes
system.mem_ctrls.dram.readRowHitRate            85.56                       # Row buffer hit rate for reads
system.mem_ctrls.dram.writeRowHitRate           80.00                       # Row buffer hit rate for writes
system.mem_ctrls.dram.bytesPerActivate::samples          103                       # Bytes accessed per row activation
system.mem_ctrls.dram.bytesPerActivate::mean   446.757282                       # Bytes accessed per row activation
system.mem_ctrls.dram.bytesPerActivate::gmean   297.309763                       # Bytes accessed per row activation
system.mem_ctrls.dram.bytesPerActivate::stdev   352.710081                       # Bytes accessed per row activation
system.mem_ctrls.dram.bytesPerActivate::0-127           20     19.42%     19.42% # Bytes accessed per row activation
system.mem_ctrls.dram.bytesPerActivate::128-255           18     17.48%     36.89% # Bytes accessed per row activation
system.mem_ctrls.dram.bytesPerActivate::256-383           18     17.48%     54.37% # Bytes accessed per row activation
system.mem_ctrls.dram.bytesPerActivate::384-511            9      8.74%     63.11% # Bytes accessed per row activation
system.mem_ctrls.dram.bytesPerActivate::512-639            7      6.80%     69.90% # Bytes accessed per row activation
system.mem_ctrls.dram.bytesPerActivate::640-767            3      2.91%     72.82% # Bytes accessed per row activation
system.mem_ctrls.dram.bytesPerActivate::768-895            5      4.85%     77.67% # Bytes accessed per row activation
system.mem_ctrls.dram.bytesPerActivate::896-1023            7      6.80%     84.47% # Bytes accessed per row activation
system.mem_ctrls.dram.bytesPerActivate::1024-1151           16     15.53%    100.00% # Bytes accessed per row activation
system.mem_ctrls.dram.bytesPerActivate::total          103                       # Bytes accessed per row activation
system.mem_ctrls.dram.bytesRead                 46080                       # Total number of bytes read from DRAM
system.mem_ctrls.dram.bytesWritten               2880                       # Total number of bytes written to DRAM
system.mem_ctrls.dram.avgRdBW              872.512450                       # Average DRAM read bandwidth in MiBytes/s
system.mem_ctrls.dram.avgWrBW               54.532028                       # Average DRAM write bandwidth in MiBytes/s
system.mem_ctrls.dram.peakBW                 19207.00                       # Theoretical peak bandwidth in MiByte/s
system.mem_ctrls.dram.busUtil                    4.83                       # Data bus utilization in percentage
system.mem_ctrls.dram.busUtilRead                4.54                       # Data bus utilization in percentage for reads
system.mem_ctrls.dram.busUtilWrite               0.28                       # Data bus utilization in percentage for writes
system.mem_ctrls.dram.pageHitRate               85.23                       # Row buffer hit rate, read and write combined
system.mem_ctrls.dram.power_state.pwrStateResidencyTicks::UNDEFINED     52813000                       # Cumulative time (in ticks) in various power states
system.mem_ctrls.dram.rank0.actEnergy    113834.448000                       # Energy for activate commands per rank (pJ)
system.mem_ctrls.dram.rank0.preEnergy    178938.396000                       # Energy for precharge commands per rank (pJ)
system.mem_ctrls.dram.rank0.readEnergy   1286421.225600                       # Energy for read commands per rank (pJ)
system.mem_ctrls.dram.rank0.writeEnergy  51899.232000                       # Energy for write commands per rank (pJ)
system.mem_ctrls.dram.rank0.refreshEnergy 4055133.297600                       # Energy for refresh commands per rank (pJ)
system.mem_ctrls.dram.rank0.actBackEnergy 24733302.720000                       # Energy for active background per rank (pJ)
system.mem_ctrls.dram.rank0.preBackEnergy 163406.611200                       # Energy for precharge background per rank (pJ)
system.mem_ctrls.dram.rank0.actPowerDownEnergy            0                       # Energy for active power-down per rank (pJ)
system.mem_ctrls.dram.rank0.prePowerDownEnergy            0                       # Energy for precharge power-down per rank (pJ)
system.mem_ctrls.dram.rank0.selfRefreshEnergy            0                       # Energy for self refresh per rank (pJ)
system.mem_ctrls.dram.rank0.totalEnergy  30582935.930400                       # Total energy per rank (pJ)
system.mem_ctrls.dram.rank0.averagePower   579.079695                       # Core power per rank (mW)
system.mem_ctrls.dram.rank0.totalIdleTime            0                       # Total Idle time Per DRAM Rank
system.mem_ctrls.dram.rank0.pwrStateTime::IDLE       320280                       # Time in different power states
system.mem_ctrls.dram.rank0.pwrStateTime::REF      2100000                       # Time in different power states
system.mem_ctrls.dram.rank0.pwrStateTime::SREF            0                       # Time in different power states
system.mem_ctrls.dram.rank0.pwrStateTime::PRE_PDN            0                       # Time in different power states
system.mem_ctrls.dram.rank0.pwrStateTime::ACT     50392720                       # Time in different power states
system.mem_ctrls.dram.rank0.pwrStateTime::ACT_PDN            0                       # Time in different power states
system.mem_ctrls.dram.rank1.actEnergy    62375.040000                       # Energy for activate commands per rank (pJ)
system.mem_ctrls.dram.rank1.preEnergy    101857.240800                       # Energy for precharge commands per rank (pJ)
system.mem_ctrls.dram.rank1.readEnergy   688468.502400                       # Energy for read commands per rank (pJ)
system.mem_ctrls.dram.rank1.writeEnergy  33026.784000                       # Energy for write commands per rank (pJ)
system.mem_ctrls.dram.rank1.refreshEnergy 4055133.297600                       # Energy for refresh commands per rank (pJ)
system.mem_ctrls.dram.rank1.actBackEnergy 16602032.529600                       # Energy for active background per rank (pJ)
system.mem_ctrls.dram.rank1.preBackEnergy 5776872.326400                       # Energy for precharge background per rank (pJ)
system.mem_ctrls.dram.rank1.actPowerDownEnergy            0                       # Energy for active power-down per rank (pJ)
system.mem_ctrls.dram.rank1.prePowerDownEnergy            0                       # Energy for precharge power-down per rank (pJ)
system.mem_ctrls.dram.rank1.selfRefreshEnergy            0                       # Energy for self refresh per rank (pJ)
system.mem_ctrls.dram.rank1.totalEnergy  27319765.720800                       # Total energy per rank (pJ)
system.mem_ctrls.dram.rank1.averagePower   517.292442                       # Core power per rank (mW)
system.mem_ctrls.dram.rank1.totalIdleTime            0                       # Total Idle time Per DRAM Rank
system.mem_ctrls.dram.rank1.pwrStateTime::IDLE     17559460                       # Time in different power states
system.mem_ctrls.dram.rank1.pwrStateTime::REF      2100000                       # Time in different power states
system.mem_ctrls.dram.rank1.pwrStateTime::SREF            0                       # Time in different power states
system.mem_ctrls.dram.rank1.pwrStateTime::PRE_PDN            0                       # Time in different power states
system.mem_ctrls.dram.rank1.pwrStateTime::ACT     33153540                       # Time in different power states
system.mem_ctrls.dram.rank1.pwrStateTime::ACT_PDN            0                       # Time in different power states
system.mem_ctrls.power_state.pwrStateResidencyTicks::UNDEFINED     52813000                       # Cumulative time (in ticks) in various power states
system.membus.trans_dist::ReadResp                875                       # Transaction distribution
system.membus.trans_dist::WritebackClean          332                       # Transaction distribution
system.membus.trans_dist::CleanEvict                2                       # Transaction distribution
system.membus.trans_dist::ReadExReq                63                       # Transaction distribution
system.membus.trans_dist::ReadExResp               63                       # Transaction distribution
system.membus.trans_dist::ReadCleanReq            715                       # Transaction distribution
system.membus.trans_dist::ReadSharedReq           161                       # Transaction distribution
system.membus.pkt_count_system.cpu.icache.mem_side_port::system.mem_ctrls.port         1761                       # Packet count per connected requestor and responder (bytes)
system.membus.pkt_count_system.cpu.dcache.mem_side_port::system.mem_ctrls.port          450                       # Packet count per connected requestor and responder (bytes)
system.membus.pkt_count::total                   2211                       # Packet count per connected requestor and responder (bytes)
system.membus.pkt_size_system.cpu.icache.mem_side_port::system.mem_ctrls.port        66944                       # Cumulative packet size per connected requestor and responder (bytes)
system.membus.pkt_size_system.cpu.dcache.mem_side_port::system.mem_ctrls.port        14336                       # Cumulative packet size per connected requestor and responder (bytes)
system.membus.pkt_size::total                   81280                       # Cumulative packet size per connected requestor and responder (bytes)
system.membus.snoops                                0                       # Total snoops (count)
system.membus.snoopTraffic                          0                       # Total snoop traffic (bytes)
system.membus.snoop_fanout::samples               939                       # Request fanout histogram
system.membus.snoop_fanout::mean             0.086262                       # Request fanout histogram
system.membus.snoop_fanout::stdev            0.280900                       # Request fanout histogram
system.membus.snoop_fanout::underflows              0      0.00%      0.00% # Request fanout histogram
system.membus.snoop_fanout::0                     858     91.37%     91.37% # Request fanout histogram
system.membus.snoop_fanout::1                      81      8.63%    100.00% # Request fanout histogram
system.membus.snoop_fanout::2                       0      0.00%    100.00% # Request fanout histogram
system.membus.snoop_fanout::overflows               0      0.00%    100.00% # Request fanout histogram
system.membus.snoop_fanout::min_value               0                       # Request fanout histogram
system.membus.snoop_fanout::max_value               1                       # Request fanout histogram
system.membus.snoop_fanout::total                 939                       # Request fanout histogram
system.membus.power_state.pwrStateResidencyTicks::UNDEFINED     52813000                       # Cumulative time (in ticks) in various power states
system.membus.reqLayer0.occupancy             2758000                       # Layer occupancy (ticks)
system.membus.reqLayer0.utilization               5.2                       # Layer utilization (%)
system.membus.respLayer1.occupancy            3809144                       # Layer occupancy (ticks)
system.membus.respLayer1.utilization              7.2                       # Layer utilization (%)
system.membus.respLayer2.occupancy            1202658                       # Layer occupancy (ticks)
system.membus.respLayer2.utilization              2.3                       # Layer utilization (%)
system.voltage_domain.voltage                       1                       # Voltage in Volts

---------- End Simulation Statistics   ----------
