
---------- Begin Simulation Statistics ----------
final_tick                               516094077500                       # Number of ticks from beginning of simulation (restored from checkpoints and never reset)
host_inst_rate                                 192320                       # Simulator instruction rate (inst/s)
host_mem_usage                                 670020                       # Number of bytes of host memory used
host_op_rate                                   355040                       # Simulator op (including micro ops) rate (op/s)
host_seconds                                   519.97                       # Real time elapsed on the host
host_tick_rate                              992553392                       # Simulator tick rate (ticks/s)
sim_freq                                 1000000000000                       # Frequency of simulated ticks
sim_insts                                   100000000                       # Number of instructions simulated
sim_ops                                     184608571                       # Number of ops (including micro ops) simulated
sim_seconds                                  0.516094                       # Number of seconds simulated
sim_ticks                                516094077500                       # Number of ticks simulated
system.cpu.committedInsts                   100000000                       # Number of instructions committed
system.cpu.committedOps                     184608571                       # Number of ops (including micro ops) committed
system.cpu.cpi                              10.321882                       # CPI: cycles per instruction
system.cpu.discardedOps                          4366                       # Number of ops (including micro ops) which were discarded before commit
system.cpu.idleCycles                       809741951                       # Total number of cycles that the object has spent stopped
system.cpu.ipc                               0.096882                       # IPC: instructions per cycle
system.cpu.numCycles                       1032188155                       # number of cpu cycles simulated
system.cpu.numFetchSuspends                         0                       # Number of times Execute suspended instruction fetching
system.cpu.numWorkItemsCompleted                    0                       # number of work items this cpu completed
system.cpu.numWorkItemsStarted                      0                       # number of work items this cpu started
system.cpu.op_class_0::No_OpClass                   0      0.00%      0.00% # Class of committed instruction
system.cpu.op_class_0::IntAlu                97854705     53.01%     53.01% # Class of committed instruction
system.cpu.op_class_0::IntMult                     79      0.00%     53.01% # Class of committed instruction
system.cpu.op_class_0::IntDiv                       0      0.00%     53.01% # Class of committed instruction
system.cpu.op_class_0::FloatAdd                     0      0.00%     53.01% # Class of committed instruction
system.cpu.op_class_0::FloatCmp                     0      0.00%     53.01% # Class of committed instruction
system.cpu.op_class_0::FloatCvt                     0      0.00%     53.01% # Class of committed instruction
system.cpu.op_class_0::FloatMult                    0      0.00%     53.01% # Class of committed instruction
system.cpu.op_class_0::FloatMultAcc                 0      0.00%     53.01% # Class of committed instruction
system.cpu.op_class_0::FloatDiv                     0      0.00%     53.01% # Class of committed instruction
system.cpu.op_class_0::FloatMisc                    0      0.00%     53.01% # Class of committed instruction
system.cpu.op_class_0::FloatSqrt                    0      0.00%     53.01% # Class of committed instruction
system.cpu.op_class_0::SimdAdd                      0      0.00%     53.01% # Class of committed instruction
system.cpu.op_class_0::SimdAddAcc                   0      0.00%     53.01% # Class of committed instruction
system.cpu.op_class_0::SimdAlu                      0      0.00%     53.01% # Class of committed instruction
system.cpu.op_class_0::SimdCmp                      0      0.00%     53.01% # Class of committed instruction
system.cpu.op_class_0::SimdCvt                      0      0.00%     53.01% # Class of committed instruction
system.cpu.op_class_0::SimdMisc                     0      0.00%     53.01% # Class of committed instruction
system.cpu.op_class_0::SimdMult                     0      0.00%     53.01% # Class of committed instruction
system.cpu.op_class_0::SimdMultAcc                  0      0.00%     53.01% # Class of committed instruction
system.cpu.op_class_0::SimdShift                    0      0.00%     53.01% # Class of committed instruction
system.cpu.op_class_0::SimdShiftAcc                 0      0.00%     53.01% # Class of committed instruction
system.cpu.op_class_0::SimdDiv                      0      0.00%     53.01% # Class of committed instruction
system.cpu.op_class_0::SimdSqrt                     0      0.00%     53.01% # Class of committed instruction
system.cpu.op_class_0::SimdFloatAdd                 0      0.00%     53.01% # Class of committed instruction
system.cpu.op_class_0::SimdFloatAlu                 0      0.00%     53.01% # Class of committed instruction
system.cpu.op_class_0::SimdFloatCmp                 0      0.00%     53.01% # Class of committed instruction
system.cpu.op_class_0::SimdFloatCvt                 0      0.00%     53.01% # Class of committed instruction
system.cpu.op_class_0::SimdFloatDiv                 0      0.00%     53.01% # Class of committed instruction
system.cpu.op_class_0::SimdFloatMisc               11      0.00%     53.01% # Class of committed instruction
system.cpu.op_class_0::SimdFloatMult                0      0.00%     53.01% # Class of committed instruction
system.cpu.op_class_0::SimdFloatMultAcc             0      0.00%     53.01% # Class of committed instruction
system.cpu.op_class_0::SimdFloatSqrt                0      0.00%     53.01% # Class of committed instruction
system.cpu.op_class_0::SimdReduceAdd                0      0.00%     53.01% # Class of committed instruction
system.cpu.op_class_0::SimdReduceAlu                0      0.00%     53.01% # Class of committed instruction
system.cpu.op_class_0::SimdReduceCmp                0      0.00%     53.01% # Class of committed instruction
system.cpu.op_class_0::SimdFloatReduceAdd            0      0.00%     53.01% # Class of committed instruction
system.cpu.op_class_0::SimdFloatReduceCmp            0      0.00%     53.01% # Class of committed instruction
system.cpu.op_class_0::SimdAes                      0      0.00%     53.01% # Class of committed instruction
system.cpu.op_class_0::SimdAesMix                   0      0.00%     53.01% # Class of committed instruction
system.cpu.op_class_0::SimdSha1Hash                 0      0.00%     53.01% # Class of committed instruction
system.cpu.op_class_0::SimdSha1Hash2                0      0.00%     53.01% # Class of committed instruction
system.cpu.op_class_0::SimdSha256Hash               0      0.00%     53.01% # Class of committed instruction
system.cpu.op_class_0::SimdSha256Hash2              0      0.00%     53.01% # Class of committed instruction
system.cpu.op_class_0::SimdShaSigma2                0      0.00%     53.01% # Class of committed instruction
system.cpu.op_class_0::SimdShaSigma3                0      0.00%     53.01% # Class of committed instruction
system.cpu.op_class_0::SimdPredAlu                  0      0.00%     53.01% # Class of committed instruction
system.cpu.op_class_0::MemRead                1983215      1.07%     54.08% # Class of committed instruction
system.cpu.op_class_0::MemWrite              84770561     45.92%    100.00% # Class of committed instruction
system.cpu.op_class_0::FloatMemRead                 0      0.00%    100.00% # Class of committed instruction
system.cpu.op_class_0::FloatMemWrite                0      0.00%    100.00% # Class of committed instruction
system.cpu.op_class_0::IprAccess                    0      0.00%    100.00% # Class of committed instruction
system.cpu.op_class_0::InstPrefetch                 0      0.00%    100.00% # Class of committed instruction
system.cpu.op_class_0::total                184608571                       # Class of committed instruction
system.cpu.tickCycles                       222446204                       # Number of cycles that the object actually ticked
system.cpu.workload.numSyscalls                    19                       # Number of system calls
system.membus.snoop_filter.hit_multi_requests            0                       # Number of requests hitting in the snoop filter with multiple (>1) holders of the requested data.
system.membus.snoop_filter.hit_multi_snoops            0                       # Number of snoops hitting in the snoop filter with multiple (>1) holders of the requested data.
system.membus.snoop_filter.hit_single_requests      5255171                       # Number of requests hitting in the snoop filter with a single holder of the requested data.
system.membus.snoop_filter.hit_single_snoops            0                       # Number of snoops hitting in the snoop filter with a single holder of the requested data.
system.membus.snoop_filter.tot_requests      10543562                       # Total number of requests made to the snoop filter.
system.membus.snoop_filter.tot_snoops               0                       # Total number of snoops made to the snoop filter.
system.tol2bus.snoop_filter.hit_multi_requests          103                       # Number of requests hitting in the snoop filter with multiple (>1) holders of the requested data.
system.tol2bus.snoop_filter.hit_multi_snoops            0                       # Number of snoops hitting in the snoop filter with multiple (>1) holders of the requested data.
system.tol2bus.snoop_filter.hit_single_requests      5287615                       # Number of requests hitting in the snoop filter with a single holder of the requested data.
system.tol2bus.snoop_filter.hit_single_snoops          647                       # Number of snoops hitting in the snoop filter with a single holder of the requested data.
system.tol2bus.snoop_filter.tot_requests     10576208                       # Total number of requests made to the snoop filter.
system.tol2bus.snoop_filter.tot_snoops            647                       # Total number of snoops made to the snoop filter.
system.clk_domain.clock                          1000                       # Clock period in ticks
system.cpu.branchPred.lookups                10707625                       # Number of BP lookups
system.cpu.branchPred.condPredicted          10698594                       # Number of conditional branches predicted
system.cpu.branchPred.condIncorrect              1503                       # Number of conditional branches incorrect
system.cpu.branchPred.BTBLookups             10699397                       # Number of BTB lookups
system.cpu.branchPred.BTBHits                10697719                       # Number of BTB hits
system.cpu.branchPred.BTBHitPct             99.984317                       # BTB Hit Percentage
system.cpu.branchPred.RASUsed                    2863                       # Number of times the RAS was used to get a target.
system.cpu.branchPred.RASIncorrect                  1                       # Number of incorrect RAS predictions.
system.cpu.branchPred.indirectLookups             354                       # Number of indirect predictor lookups.
system.cpu.branchPred.indirectHits                161                       # Number of indirect target hits.
system.cpu.branchPred.indirectMisses              193                       # Number of indirect misses.
system.cpu.branchPred.indirectMispredicted          152                       # Number of mispredicted indirect branches.
system.cpu.dcache.demand_hits::.cpu.data     76098215                       # number of demand (read+write) hits
system.cpu.dcache.demand_hits::total         76098215                       # number of demand (read+write) hits
system.cpu.dcache.overall_hits::.cpu.data     76098263                       # number of overall hits
system.cpu.dcache.overall_hits::total        76098263                       # number of overall hits
system.cpu.dcache.demand_misses::.cpu.data     10572558                       # number of demand (read+write) misses
system.cpu.dcache.demand_misses::total       10572558                       # number of demand (read+write) misses
system.cpu.dcache.overall_misses::.cpu.data     10572591                       # number of overall misses
system.cpu.dcache.overall_misses::total      10572591                       # number of overall misses
system.cpu.dcache.demand_miss_latency::.cpu.data 880830368500                       # number of demand (read+write) miss cycles
system.cpu.dcache.demand_miss_latency::total 880830368500                       # number of demand (read+write) miss cycles
system.cpu.dcache.overall_miss_latency::.cpu.data 880830368500                       # number of overall miss cycles
system.cpu.dcache.overall_miss_latency::total 880830368500                       # number of overall miss cycles
system.cpu.dcache.demand_accesses::.cpu.data     86670773                       # number of demand (read+write) accesses
system.cpu.dcache.demand_accesses::total     86670773                       # number of demand (read+write) accesses
system.cpu.dcache.overall_accesses::.cpu.data     86670854                       # number of overall (read+write) accesses
system.cpu.dcache.overall_accesses::total     86670854                       # number of overall (read+write) accesses
system.cpu.dcache.demand_miss_rate::.cpu.data     0.121985                       # miss rate for demand accesses
system.cpu.dcache.demand_miss_rate::total     0.121985                       # miss rate for demand accesses
system.cpu.dcache.overall_miss_rate::.cpu.data     0.121986                       # miss rate for overall accesses
system.cpu.dcache.overall_miss_rate::total     0.121986                       # miss rate for overall accesses
system.cpu.dcache.demand_avg_miss_latency::.cpu.data 83312.890646                       # average overall miss latency
system.cpu.dcache.demand_avg_miss_latency::total 83312.890646                       # average overall miss latency
system.cpu.dcache.overall_avg_miss_latency::.cpu.data 83312.630603                       # average overall miss latency
system.cpu.dcache.overall_avg_miss_latency::total 83312.630603                       # average overall miss latency
system.cpu.dcache.blocked_cycles::no_mshrs          137                       # number of cycles access was blocked
system.cpu.dcache.blocked_cycles::no_targets            0                       # number of cycles access was blocked
system.cpu.dcache.blocked::no_mshrs                 1                       # number of cycles access was blocked
system.cpu.dcache.blocked::no_targets               0                       # number of cycles access was blocked
system.cpu.dcache.avg_blocked_cycles::no_mshrs          137                       # average number of cycles each access was blocked
system.cpu.dcache.avg_blocked_cycles::no_targets          nan                       # average number of cycles each access was blocked
system.cpu.dcache.writebacks::.writebacks      5286884                       # number of writebacks
system.cpu.dcache.writebacks::total           5286884                       # number of writebacks
system.cpu.dcache.demand_mshr_hits::.cpu.data      5284809                       # number of demand (read+write) MSHR hits
system.cpu.dcache.demand_mshr_hits::total      5284809                       # number of demand (read+write) MSHR hits
system.cpu.dcache.overall_mshr_hits::.cpu.data      5284809                       # number of overall MSHR hits
system.cpu.dcache.overall_mshr_hits::total      5284809                       # number of overall MSHR hits
system.cpu.dcache.demand_mshr_misses::.cpu.data      5287749                       # number of demand (read+write) MSHR misses
system.cpu.dcache.demand_mshr_misses::total      5287749                       # number of demand (read+write) MSHR misses
system.cpu.dcache.overall_mshr_misses::.cpu.data      5287770                       # number of overall MSHR misses
system.cpu.dcache.overall_mshr_misses::total      5287770                       # number of overall MSHR misses
system.cpu.dcache.demand_mshr_miss_latency::.cpu.data 433930129500                       # number of demand (read+write) MSHR miss cycles
system.cpu.dcache.demand_mshr_miss_latency::total 433930129500                       # number of demand (read+write) MSHR miss cycles
system.cpu.dcache.overall_mshr_miss_latency::.cpu.data 433931856500                       # number of overall MSHR miss cycles
system.cpu.dcache.overall_mshr_miss_latency::total 433931856500                       # number of overall MSHR miss cycles
system.cpu.dcache.demand_mshr_miss_rate::.cpu.data     0.061010                       # mshr miss rate for demand accesses
system.cpu.dcache.demand_mshr_miss_rate::total     0.061010                       # mshr miss rate for demand accesses
system.cpu.dcache.overall_mshr_miss_rate::.cpu.data     0.061010                       # mshr miss rate for overall accesses
system.cpu.dcache.overall_mshr_miss_rate::total     0.061010                       # mshr miss rate for overall accesses
system.cpu.dcache.demand_avg_mshr_miss_latency::.cpu.data 82063.299430                       # average overall mshr miss latency
system.cpu.dcache.demand_avg_mshr_miss_latency::total 82063.299430                       # average overall mshr miss latency
system.cpu.dcache.overall_avg_mshr_miss_latency::.cpu.data 82063.300125                       # average overall mshr miss latency
system.cpu.dcache.overall_avg_mshr_miss_latency::total 82063.300125                       # average overall mshr miss latency
system.cpu.dcache.replacements                5287259                       # number of replacements
system.cpu.dcache.ReadReq_hits::.cpu.data      1944184                       # number of ReadReq hits
system.cpu.dcache.ReadReq_hits::total         1944184                       # number of ReadReq hits
system.cpu.dcache.ReadReq_misses::.cpu.data          441                       # number of ReadReq misses
system.cpu.dcache.ReadReq_misses::total           441                       # number of ReadReq misses
system.cpu.dcache.ReadReq_miss_latency::.cpu.data     32528000                       # number of ReadReq miss cycles
system.cpu.dcache.ReadReq_miss_latency::total     32528000                       # number of ReadReq miss cycles
system.cpu.dcache.ReadReq_accesses::.cpu.data      1944625                       # number of ReadReq accesses(hits+misses)
system.cpu.dcache.ReadReq_accesses::total      1944625                       # number of ReadReq accesses(hits+misses)
system.cpu.dcache.ReadReq_miss_rate::.cpu.data     0.000227                       # miss rate for ReadReq accesses
system.cpu.dcache.ReadReq_miss_rate::total     0.000227                       # miss rate for ReadReq accesses
system.cpu.dcache.ReadReq_avg_miss_latency::.cpu.data 73759.637188                       # average ReadReq miss latency
system.cpu.dcache.ReadReq_avg_miss_latency::total 73759.637188                       # average ReadReq miss latency
system.cpu.dcache.ReadReq_mshr_hits::.cpu.data           43                       # number of ReadReq MSHR hits
system.cpu.dcache.ReadReq_mshr_hits::total           43                       # number of ReadReq MSHR hits
system.cpu.dcache.ReadReq_mshr_misses::.cpu.data          398                       # number of ReadReq MSHR misses
system.cpu.dcache.ReadReq_mshr_misses::total          398                       # number of ReadReq MSHR misses
system.cpu.dcache.ReadReq_mshr_miss_latency::.cpu.data     29067500                       # number of ReadReq MSHR miss cycles
system.cpu.dcache.ReadReq_mshr_miss_latency::total     29067500                       # number of ReadReq MSHR miss cycles
system.cpu.dcache.ReadReq_mshr_miss_rate::.cpu.data     0.000205                       # mshr miss rate for ReadReq accesses
system.cpu.dcache.ReadReq_mshr_miss_rate::total     0.000205                       # mshr miss rate for ReadReq accesses
system.cpu.dcache.ReadReq_avg_mshr_miss_latency::.cpu.data 73033.919598                       # average ReadReq mshr miss latency
system.cpu.dcache.ReadReq_avg_mshr_miss_latency::total 73033.919598                       # average ReadReq mshr miss latency
system.cpu.dcache.WriteReq_hits::.cpu.data     74154031                       # number of WriteReq hits
system.cpu.dcache.WriteReq_hits::total       74154031                       # number of WriteReq hits
system.cpu.dcache.WriteReq_misses::.cpu.data     10572117                       # number of WriteReq misses
system.cpu.dcache.WriteReq_misses::total     10572117                       # number of WriteReq misses
system.cpu.dcache.WriteReq_miss_latency::.cpu.data 880797840500                       # number of WriteReq miss cycles
system.cpu.dcache.WriteReq_miss_latency::total 880797840500                       # number of WriteReq miss cycles
system.cpu.dcache.WriteReq_accesses::.cpu.data     84726148                       # number of WriteReq accesses(hits+misses)
system.cpu.dcache.WriteReq_accesses::total     84726148                       # number of WriteReq accesses(hits+misses)
system.cpu.dcache.WriteReq_miss_rate::.cpu.data     0.124780                       # miss rate for WriteReq accesses
system.cpu.dcache.WriteReq_miss_rate::total     0.124780                       # miss rate for WriteReq accesses
system.cpu.dcache.WriteReq_avg_miss_latency::.cpu.data 83313.289145                       # average WriteReq miss latency
system.cpu.dcache.WriteReq_avg_miss_latency::total 83313.289145                       # average WriteReq miss latency
system.cpu.dcache.WriteReq_mshr_hits::.cpu.data      5284766                       # number of WriteReq MSHR hits
system.cpu.dcache.WriteReq_mshr_hits::total      5284766                       # number of WriteReq MSHR hits
system.cpu.dcache.WriteReq_mshr_misses::.cpu.data      5287351                       # number of WriteReq MSHR misses
system.cpu.dcache.WriteReq_mshr_misses::total      5287351                       # number of WriteReq MSHR misses
system.cpu.dcache.WriteReq_mshr_miss_latency::.cpu.data 433901062000                       # number of WriteReq MSHR miss cycles
system.cpu.dcache.WriteReq_mshr_miss_latency::total 433901062000                       # number of WriteReq MSHR miss cycles
system.cpu.dcache.WriteReq_mshr_miss_rate::.cpu.data     0.062405                       # mshr miss rate for WriteReq accesses
system.cpu.dcache.WriteReq_mshr_miss_rate::total     0.062405                       # mshr miss rate for WriteReq accesses
system.cpu.dcache.WriteReq_avg_mshr_miss_latency::.cpu.data 82063.979108                       # average WriteReq mshr miss latency
system.cpu.dcache.WriteReq_avg_mshr_miss_latency::total 82063.979108                       # average WriteReq mshr miss latency
system.cpu.dcache.SoftPFReq_hits::.cpu.data           48                       # number of SoftPFReq hits
system.cpu.dcache.SoftPFReq_hits::total            48                       # number of SoftPFReq hits
system.cpu.dcache.SoftPFReq_misses::.cpu.data           33                       # number of SoftPFReq misses
system.cpu.dcache.SoftPFReq_misses::total           33                       # number of SoftPFReq misses
system.cpu.dcache.SoftPFReq_accesses::.cpu.data           81                       # number of SoftPFReq accesses(hits+misses)
system.cpu.dcache.SoftPFReq_accesses::total           81                       # number of SoftPFReq accesses(hits+misses)
system.cpu.dcache.SoftPFReq_miss_rate::.cpu.data     0.407407                       # miss rate for SoftPFReq accesses
system.cpu.dcache.SoftPFReq_miss_rate::total     0.407407                       # miss rate for SoftPFReq accesses
system.cpu.dcache.SoftPFReq_mshr_misses::.cpu.data           21                       # number of SoftPFReq MSHR misses
system.cpu.dcache.SoftPFReq_mshr_misses::total           21                       # number of SoftPFReq MSHR misses
system.cpu.dcache.SoftPFReq_mshr_miss_latency::.cpu.data      1727000                       # number of SoftPFReq MSHR miss cycles
system.cpu.dcache.SoftPFReq_mshr_miss_latency::total      1727000                       # number of SoftPFReq MSHR miss cycles
system.cpu.dcache.SoftPFReq_mshr_miss_rate::.cpu.data     0.259259                       # mshr miss rate for SoftPFReq accesses
system.cpu.dcache.SoftPFReq_mshr_miss_rate::total     0.259259                       # mshr miss rate for SoftPFReq accesses
system.cpu.dcache.SoftPFReq_avg_mshr_miss_latency::.cpu.data 82238.095238                       # average SoftPFReq mshr miss latency
system.cpu.dcache.SoftPFReq_avg_mshr_miss_latency::total 82238.095238                       # average SoftPFReq mshr miss latency
system.cpu.dcache.LoadLockedReq_hits::.cpu.data           33                       # number of LoadLockedReq hits
system.cpu.dcache.LoadLockedReq_hits::total           33                       # number of LoadLockedReq hits
system.cpu.dcache.LoadLockedReq_misses::.cpu.data            1                       # number of LoadLockedReq misses
system.cpu.dcache.LoadLockedReq_misses::total            1                       # number of LoadLockedReq misses
system.cpu.dcache.LoadLockedReq_miss_latency::.cpu.data        86500                       # number of LoadLockedReq miss cycles
system.cpu.dcache.LoadLockedReq_miss_latency::total        86500                       # number of LoadLockedReq miss cycles
system.cpu.dcache.LoadLockedReq_accesses::.cpu.data           34                       # number of LoadLockedReq accesses(hits+misses)
system.cpu.dcache.LoadLockedReq_accesses::total           34                       # number of LoadLockedReq accesses(hits+misses)
system.cpu.dcache.LoadLockedReq_miss_rate::.cpu.data     0.029412                       # miss rate for LoadLockedReq accesses
system.cpu.dcache.LoadLockedReq_miss_rate::total     0.029412                       # miss rate for LoadLockedReq accesses
system.cpu.dcache.LoadLockedReq_avg_miss_latency::.cpu.data        86500                       # average LoadLockedReq miss latency
system.cpu.dcache.LoadLockedReq_avg_miss_latency::total        86500                       # average LoadLockedReq miss latency
system.cpu.dcache.LoadLockedReq_mshr_misses::.cpu.data            1                       # number of LoadLockedReq MSHR misses
system.cpu.dcache.LoadLockedReq_mshr_misses::total            1                       # number of LoadLockedReq MSHR misses
system.cpu.dcache.LoadLockedReq_mshr_miss_latency::.cpu.data        85500                       # number of LoadLockedReq MSHR miss cycles
system.cpu.dcache.LoadLockedReq_mshr_miss_latency::total        85500                       # number of LoadLockedReq MSHR miss cycles
system.cpu.dcache.LoadLockedReq_mshr_miss_rate::.cpu.data     0.029412                       # mshr miss rate for LoadLockedReq accesses
system.cpu.dcache.LoadLockedReq_mshr_miss_rate::total     0.029412                       # mshr miss rate for LoadLockedReq accesses
system.cpu.dcache.LoadLockedReq_avg_mshr_miss_latency::.cpu.data        85500                       # average LoadLockedReq mshr miss latency
system.cpu.dcache.LoadLockedReq_avg_mshr_miss_latency::total        85500                       # average LoadLockedReq mshr miss latency
system.cpu.dcache.StoreCondReq_hits::.cpu.data           34                       # number of StoreCondReq hits
system.cpu.dcache.StoreCondReq_hits::total           34                       # number of StoreCondReq hits
system.cpu.dcache.StoreCondReq_accesses::.cpu.data           34                       # number of StoreCondReq accesses(hits+misses)
system.cpu.dcache.StoreCondReq_accesses::total           34                       # number of StoreCondReq accesses(hits+misses)
system.cpu.dcache.power_state.pwrStateResidencyTicks::UNDEFINED 516094077500                       # Cumulative time (in ticks) in various power states
system.cpu.dcache.tags.tagsinuse           511.932825                       # Cycle average of tags in use
system.cpu.dcache.tags.total_refs            81386101                       # Total number of references to valid blocks.
system.cpu.dcache.tags.sampled_refs           5287771                       # Sample count of references to valid blocks.
system.cpu.dcache.tags.avg_refs             15.391382                       # Average number of references to valid blocks.
system.cpu.dcache.tags.warmup_cycle            249500                       # Cycle when the warmup percentage was hit.
system.cpu.dcache.tags.occ_blocks::.cpu.data   511.932825                       # Average occupied blocks per requestor
system.cpu.dcache.tags.occ_percent::.cpu.data     0.999869                       # Average percentage of cache occupancy
system.cpu.dcache.tags.occ_percent::total     0.999869                       # Average percentage of cache occupancy
system.cpu.dcache.tags.occ_task_id_blocks::1024          512                       # Occupied blocks per task id
system.cpu.dcache.tags.age_task_id_blocks_1024::0          105                       # Occupied blocks per task id
system.cpu.dcache.tags.age_task_id_blocks_1024::1          407                       # Occupied blocks per task id
system.cpu.dcache.tags.occ_task_id_percent::1024            1                       # Percentage of cache occupancy per task id
system.cpu.dcache.tags.tag_accesses         178629615                       # Number of tag accesses
system.cpu.dcache.tags.data_accesses        178629615                       # Number of data accesses
system.cpu.dcache.tags.power_state.pwrStateResidencyTicks::UNDEFINED 516094077500                       # Cumulative time (in ticks) in various power states
system.cpu.dtb.instHits                             0                       # ITB inst hits
system.cpu.dtb.instMisses                           0                       # ITB inst misses
system.cpu.dtb.readHits                             0                       # DTB read hits
system.cpu.dtb.readMisses                           0                       # DTB read misses
system.cpu.dtb.writeHits                            0                       # DTB write hits
system.cpu.dtb.writeMisses                          0                       # DTB write misses
system.cpu.dtb.inserts                              0                       # Number of times an entry is inserted into the TLB
system.cpu.dtb.flushTlb                             0                       # Number of times complete TLB was flushed
system.cpu.dtb.flushTlbMva                          0                       # Number of times TLB was flushed by MVA
system.cpu.dtb.flushTlbMvaAsid                      0                       # Number of times TLB was flushed by MVA & ASID
system.cpu.dtb.flushTlbAsid                         0                       # Number of times TLB was flushed by ASID
system.cpu.dtb.flushedEntries                       0                       # Number of entries that have been flushed from TLB
system.cpu.dtb.alignFaults                          0                       # Number of TLB faults due to alignment restrictions
system.cpu.dtb.prefetchFaults                       0                       # Number of TLB faults due to prefetch
system.cpu.dtb.domainFaults                         0                       # Number of TLB faults due to domain restrictions
system.cpu.dtb.permsFaults                          0                       # Number of TLB faults due to permissions restrictions
system.cpu.dtb.readAccesses                         0                       # DTB read accesses
system.cpu.dtb.writeAccesses                        0                       # DTB write accesses
system.cpu.dtb.instAccesses                         0                       # ITB inst accesses
system.cpu.dtb.hits                                 0                       # Total TLB (inst and data) hits
system.cpu.dtb.misses                               0                       # Total TLB (inst and data) misses
system.cpu.dtb.accesses                             0                       # Total TLB (inst and data) accesses
system.cpu.dtb.stage2_mmu.stage2_tlb.instHits            0                       # ITB inst hits
system.cpu.dtb.stage2_mmu.stage2_tlb.instMisses            0                       # ITB inst misses
system.cpu.dtb.stage2_mmu.stage2_tlb.readHits            0                       # DTB read hits
system.cpu.dtb.stage2_mmu.stage2_tlb.readMisses            0                       # DTB read misses
system.cpu.dtb.stage2_mmu.stage2_tlb.writeHits            0                       # DTB write hits
system.cpu.dtb.stage2_mmu.stage2_tlb.writeMisses            0                       # DTB write misses
system.cpu.dtb.stage2_mmu.stage2_tlb.inserts            0                       # Number of times an entry is inserted into the TLB
system.cpu.dtb.stage2_mmu.stage2_tlb.flushTlb            0                       # Number of times complete TLB was flushed
system.cpu.dtb.stage2_mmu.stage2_tlb.flushTlbMva            0                       # Number of times TLB was flushed by MVA
system.cpu.dtb.stage2_mmu.stage2_tlb.flushTlbMvaAsid            0                       # Number of times TLB was flushed by MVA & ASID
system.cpu.dtb.stage2_mmu.stage2_tlb.flushTlbAsid            0                       # Number of times TLB was flushed by ASID
system.cpu.dtb.stage2_mmu.stage2_tlb.flushedEntries            0                       # Number of entries that have been flushed from TLB
system.cpu.dtb.stage2_mmu.stage2_tlb.alignFaults            0                       # Number of TLB faults due to alignment restrictions
system.cpu.dtb.stage2_mmu.stage2_tlb.prefetchFaults            0                       # Number of TLB faults due to prefetch
system.cpu.dtb.stage2_mmu.stage2_tlb.domainFaults            0                       # Number of TLB faults due to domain restrictions
system.cpu.dtb.stage2_mmu.stage2_tlb.permsFaults            0                       # Number of TLB faults due to permissions restrictions
system.cpu.dtb.stage2_mmu.stage2_tlb.readAccesses            0                       # DTB read accesses
system.cpu.dtb.stage2_mmu.stage2_tlb.writeAccesses            0                       # DTB write accesses
system.cpu.dtb.stage2_mmu.stage2_tlb.instAccesses            0                       # ITB inst accesses
system.cpu.dtb.stage2_mmu.stage2_tlb.hits            0                       # Total TLB (inst and data) hits
system.cpu.dtb.stage2_mmu.stage2_tlb.misses            0                       # Total TLB (inst and data) misses
system.cpu.dtb.stage2_mmu.stage2_tlb.accesses            0                       # Total TLB (inst and data) accesses
system.cpu.dtb.stage2_mmu.stage2_tlb.walker.walks            0                       # Table walker walks requested
system.cpu.dtb.stage2_mmu.stage2_tlb.walker.requestOrigin_Requested::Data            0                       # Table walker requests started/completed, data/inst
system.cpu.dtb.stage2_mmu.stage2_tlb.walker.requestOrigin_Requested::Inst            0                       # Table walker requests started/completed, data/inst
system.cpu.dtb.stage2_mmu.stage2_tlb.walker.requestOrigin_Requested::total            0                       # Table walker requests started/completed, data/inst
system.cpu.dtb.stage2_mmu.stage2_tlb.walker.requestOrigin_Completed::Data            0                       # Table walker requests started/completed, data/inst
system.cpu.dtb.stage2_mmu.stage2_tlb.walker.requestOrigin_Completed::Inst            0                       # Table walker requests started/completed, data/inst
system.cpu.dtb.stage2_mmu.stage2_tlb.walker.requestOrigin_Completed::total            0                       # Table walker requests started/completed, data/inst
system.cpu.dtb.stage2_mmu.stage2_tlb.walker.requestOrigin::total            0                       # Table walker requests started/completed, data/inst
system.cpu.dtb.stage2_mmu.stage2_tlb.walker.power_state.pwrStateResidencyTicks::UNDEFINED 516094077500                       # Cumulative time (in ticks) in various power states
system.cpu.dtb.walker.walks                         0                       # Table walker walks requested
system.cpu.dtb.walker.requestOrigin_Requested::Data            0                       # Table walker requests started/completed, data/inst
system.cpu.dtb.walker.requestOrigin_Requested::Inst            0                       # Table walker requests started/completed, data/inst
system.cpu.dtb.walker.requestOrigin_Requested::total            0                       # Table walker requests started/completed, data/inst
system.cpu.dtb.walker.requestOrigin_Completed::Data            0                       # Table walker requests started/completed, data/inst
system.cpu.dtb.walker.requestOrigin_Completed::Inst            0                       # Table walker requests started/completed, data/inst
system.cpu.dtb.walker.requestOrigin_Completed::total            0                       # Table walker requests started/completed, data/inst
system.cpu.dtb.walker.requestOrigin::total            0                       # Table walker requests started/completed, data/inst
system.cpu.dtb.walker.power_state.pwrStateResidencyTicks::UNDEFINED 516094077500                       # Cumulative time (in ticks) in various power states
system.cpu.fetch2.intInstructions            45145223                       # Number of integer instructions successfully decoded
system.cpu.fetch2.fpInstructions                    0                       # Number of floating point instructions successfully decoded
system.cpu.fetch2.vecInstructions                   0                       # Number of SIMD instructions successfully decoded
system.cpu.fetch2.loadInstructions            1988001                       # Number of memory load instructions successfully decoded
system.cpu.fetch2.storeInstructions            169249                       # Number of memory store instructions successfully decoded
system.cpu.fetch2.amoInstructions                   0                       # Number of memory atomic instructions successfully decoded
system.cpu.icache.demand_hits::.cpu.inst     32388526                       # number of demand (read+write) hits
system.cpu.icache.demand_hits::total         32388526                       # number of demand (read+write) hits
system.cpu.icache.overall_hits::.cpu.inst     32388526                       # number of overall hits
system.cpu.icache.overall_hits::total        32388526                       # number of overall hits
system.cpu.icache.demand_misses::.cpu.inst          822                       # number of demand (read+write) misses
system.cpu.icache.demand_misses::total            822                       # number of demand (read+write) misses
system.cpu.icache.overall_misses::.cpu.inst          822                       # number of overall misses
system.cpu.icache.overall_misses::total           822                       # number of overall misses
system.cpu.icache.demand_miss_latency::.cpu.inst     60012500                       # number of demand (read+write) miss cycles
system.cpu.icache.demand_miss_latency::total     60012500                       # number of demand (read+write) miss cycles
system.cpu.icache.overall_miss_latency::.cpu.inst     60012500                       # number of overall miss cycles
system.cpu.icache.overall_miss_latency::total     60012500                       # number of overall miss cycles
system.cpu.icache.demand_accesses::.cpu.inst     32389348                       # number of demand (read+write) accesses
system.cpu.icache.demand_accesses::total     32389348                       # number of demand (read+write) accesses
system.cpu.icache.overall_accesses::.cpu.inst     32389348                       # number of overall (read+write) accesses
system.cpu.icache.overall_accesses::total     32389348                       # number of overall (read+write) accesses
system.cpu.icache.demand_miss_rate::.cpu.inst     0.000025                       # miss rate for demand accesses
system.cpu.icache.demand_miss_rate::total     0.000025                       # miss rate for demand accesses
system.cpu.icache.overall_miss_rate::.cpu.inst     0.000025                       # miss rate for overall accesses
system.cpu.icache.overall_miss_rate::total     0.000025                       # miss rate for overall accesses
system.cpu.icache.demand_avg_miss_latency::.cpu.inst 73007.907543                       # average overall miss latency
system.cpu.icache.demand_avg_miss_latency::total 73007.907543                       # average overall miss latency
system.cpu.icache.overall_avg_miss_latency::.cpu.inst 73007.907543                       # average overall miss latency
system.cpu.icache.overall_avg_miss_latency::total 73007.907543                       # average overall miss latency
system.cpu.icache.blocked_cycles::no_mshrs            0                       # number of cycles access was blocked
system.cpu.icache.blocked_cycles::no_targets            0                       # number of cycles access was blocked
system.cpu.icache.blocked::no_mshrs                 0                       # number of cycles access was blocked
system.cpu.icache.blocked::no_targets               0                       # number of cycles access was blocked
system.cpu.icache.avg_blocked_cycles::no_mshrs          nan                       # average number of cycles each access was blocked
system.cpu.icache.avg_blocked_cycles::no_targets          nan                       # average number of cycles each access was blocked
system.cpu.icache.writebacks::.writebacks          356                       # number of writebacks
system.cpu.icache.writebacks::total               356                       # number of writebacks
system.cpu.icache.demand_mshr_misses::.cpu.inst          822                       # number of demand (read+write) MSHR misses
system.cpu.icache.demand_mshr_misses::total          822                       # number of demand (read+write) MSHR misses
system.cpu.icache.overall_mshr_misses::.cpu.inst          822                       # number of overall MSHR misses
system.cpu.icache.overall_mshr_misses::total          822                       # number of overall MSHR misses
system.cpu.icache.demand_mshr_miss_latency::.cpu.inst     59190500                       # number of demand (read+write) MSHR miss cycles
system.cpu.icache.demand_mshr_miss_latency::total     59190500                       # number of demand (read+write) MSHR miss cycles
system.cpu.icache.overall_mshr_miss_latency::.cpu.inst     59190500                       # number of overall MSHR miss cycles
system.cpu.icache.overall_mshr_miss_latency::total     59190500                       # number of overall MSHR miss cycles
system.cpu.icache.demand_mshr_miss_rate::.cpu.inst     0.000025                       # mshr miss rate for demand accesses
system.cpu.icache.demand_mshr_miss_rate::total     0.000025                       # mshr miss rate for demand accesses
system.cpu.icache.overall_mshr_miss_rate::.cpu.inst     0.000025                       # mshr miss rate for overall accesses
system.cpu.icache.overall_mshr_miss_rate::total     0.000025                       # mshr miss rate for overall accesses
system.cpu.icache.demand_avg_mshr_miss_latency::.cpu.inst 72007.907543                       # average overall mshr miss latency
system.cpu.icache.demand_avg_mshr_miss_latency::total 72007.907543                       # average overall mshr miss latency
system.cpu.icache.overall_avg_mshr_miss_latency::.cpu.inst 72007.907543                       # average overall mshr miss latency
system.cpu.icache.overall_avg_mshr_miss_latency::total 72007.907543                       # average overall mshr miss latency
system.cpu.icache.replacements                    356                       # number of replacements
system.cpu.icache.ReadReq_hits::.cpu.inst     32388526                       # number of ReadReq hits
system.cpu.icache.ReadReq_hits::total        32388526                       # number of ReadReq hits
system.cpu.icache.ReadReq_misses::.cpu.inst          822                       # number of ReadReq misses
system.cpu.icache.ReadReq_misses::total           822                       # number of ReadReq misses
system.cpu.icache.ReadReq_miss_latency::.cpu.inst     60012500                       # number of ReadReq miss cycles
system.cpu.icache.ReadReq_miss_latency::total     60012500                       # number of ReadReq miss cycles
system.cpu.icache.ReadReq_accesses::.cpu.inst     32389348                       # number of ReadReq accesses(hits+misses)
system.cpu.icache.ReadReq_accesses::total     32389348                       # number of ReadReq accesses(hits+misses)
system.cpu.icache.ReadReq_miss_rate::.cpu.inst     0.000025                       # miss rate for ReadReq accesses
system.cpu.icache.ReadReq_miss_rate::total     0.000025                       # miss rate for ReadReq accesses
system.cpu.icache.ReadReq_avg_miss_latency::.cpu.inst 73007.907543                       # average ReadReq miss latency
system.cpu.icache.ReadReq_avg_miss_latency::total 73007.907543                       # average ReadReq miss latency
system.cpu.icache.ReadReq_mshr_misses::.cpu.inst          822                       # number of ReadReq MSHR misses
system.cpu.icache.ReadReq_mshr_misses::total          822                       # number of ReadReq MSHR misses
system.cpu.icache.ReadReq_mshr_miss_latency::.cpu.inst     59190500                       # number of ReadReq MSHR miss cycles
system.cpu.icache.ReadReq_mshr_miss_latency::total     59190500                       # number of ReadReq MSHR miss cycles
system.cpu.icache.ReadReq_mshr_miss_rate::.cpu.inst     0.000025                       # mshr miss rate for ReadReq accesses
system.cpu.icache.ReadReq_mshr_miss_rate::total     0.000025                       # mshr miss rate for ReadReq accesses
system.cpu.icache.ReadReq_avg_mshr_miss_latency::.cpu.inst 72007.907543                       # average ReadReq mshr miss latency
system.cpu.icache.ReadReq_avg_mshr_miss_latency::total 72007.907543                       # average ReadReq mshr miss latency
system.cpu.icache.power_state.pwrStateResidencyTicks::UNDEFINED 516094077500                       # Cumulative time (in ticks) in various power states
system.cpu.icache.tags.tagsinuse           425.641553                       # Cycle average of tags in use
system.cpu.icache.tags.total_refs            32389348                       # Total number of references to valid blocks.
system.cpu.icache.tags.sampled_refs               822                       # Sample count of references to valid blocks.
system.cpu.icache.tags.avg_refs          39403.099757                       # Average number of references to valid blocks.
system.cpu.icache.tags.warmup_cycle             87500                       # Cycle when the warmup percentage was hit.
system.cpu.icache.tags.occ_blocks::.cpu.inst   425.641553                       # Average occupied blocks per requestor
system.cpu.icache.tags.occ_percent::.cpu.inst     0.831331                       # Average percentage of cache occupancy
system.cpu.icache.tags.occ_percent::total     0.831331                       # Average percentage of cache occupancy
system.cpu.icache.tags.occ_task_id_blocks::1024          466                       # Occupied blocks per task id
system.cpu.icache.tags.age_task_id_blocks_1024::4          466                       # Occupied blocks per task id
system.cpu.icache.tags.occ_task_id_percent::1024     0.910156                       # Percentage of cache occupancy per task id
system.cpu.icache.tags.tag_accesses          64779518                       # Number of tag accesses
system.cpu.icache.tags.data_accesses         64779518                       # Number of data accesses
system.cpu.icache.tags.power_state.pwrStateResidencyTicks::UNDEFINED 516094077500                       # Cumulative time (in ticks) in various power states
system.cpu.itb.instHits                             0                       # ITB inst hits
system.cpu.itb.instMisses                           0                       # ITB inst misses
system.cpu.itb.readHits                             0                       # DTB read hits
system.cpu.itb.readMisses                           0                       # DTB read misses
system.cpu.itb.writeHits                            0                       # DTB write hits
system.cpu.itb.writeMisses                          0                       # DTB write misses
system.cpu.itb.inserts                              0                       # Number of times an entry is inserted into the TLB
system.cpu.itb.flushTlb                             0                       # Number of times complete TLB was flushed
system.cpu.itb.flushTlbMva                          0                       # Number of times TLB was flushed by MVA
system.cpu.itb.flushTlbMvaAsid                      0                       # Number of times TLB was flushed by MVA & ASID
system.cpu.itb.flushTlbAsid                         0                       # Number of times TLB was flushed by ASID
system.cpu.itb.flushedEntries                       0                       # Number of entries that have been flushed from TLB
system.cpu.itb.alignFaults                          0                       # Number of TLB faults due to alignment restrictions
system.cpu.itb.prefetchFaults                       0                       # Number of TLB faults due to prefetch
system.cpu.itb.domainFaults                         0                       # Number of TLB faults due to domain restrictions
system.cpu.itb.permsFaults                          0                       # Number of TLB faults due to permissions restrictions
system.cpu.itb.readAccesses                         0                       # DTB read accesses
system.cpu.itb.writeAccesses                        0                       # DTB write accesses
system.cpu.itb.instAccesses                         0                       # ITB inst accesses
system.cpu.itb.hits                                 0                       # Total TLB (inst and data) hits
system.cpu.itb.misses                               0                       # Total TLB (inst and data) misses
system.cpu.itb.accesses                             0                       # Total TLB (inst and data) accesses
system.cpu.itb.stage2_mmu.stage2_tlb.instHits            0                       # ITB inst hits
system.cpu.itb.stage2_mmu.stage2_tlb.instMisses            0                       # ITB inst misses
system.cpu.itb.stage2_mmu.stage2_tlb.readHits            0                       # DTB read hits
system.cpu.itb.stage2_mmu.stage2_tlb.readMisses            0                       # DTB read misses
system.cpu.itb.stage2_mmu.stage2_tlb.writeHits            0                       # DTB write hits
system.cpu.itb.stage2_mmu.stage2_tlb.writeMisses            0                       # DTB write misses
system.cpu.itb.stage2_mmu.stage2_tlb.inserts            0                       # Number of times an entry is inserted into the TLB
system.cpu.itb.stage2_mmu.stage2_tlb.flushTlb            0                       # Number of times complete TLB was flushed
system.cpu.itb.stage2_mmu.stage2_tlb.flushTlbMva            0                       # Number of times TLB was flushed by MVA
system.cpu.itb.stage2_mmu.stage2_tlb.flushTlbMvaAsid            0                       # Number of times TLB was flushed by MVA & ASID
system.cpu.itb.stage2_mmu.stage2_tlb.flushTlbAsid            0                       # Number of times TLB was flushed by ASID
system.cpu.itb.stage2_mmu.stage2_tlb.flushedEntries            0                       # Number of entries that have been flushed from TLB
system.cpu.itb.stage2_mmu.stage2_tlb.alignFaults            0                       # Number of TLB faults due to alignment restrictions
system.cpu.itb.stage2_mmu.stage2_tlb.prefetchFaults            0                       # Number of TLB faults due to prefetch
system.cpu.itb.stage2_mmu.stage2_tlb.domainFaults            0                       # Number of TLB faults due to domain restrictions
system.cpu.itb.stage2_mmu.stage2_tlb.permsFaults            0                       # Number of TLB faults due to permissions restrictions
system.cpu.itb.stage2_mmu.stage2_tlb.readAccesses            0                       # DTB read accesses
system.cpu.itb.stage2_mmu.stage2_tlb.writeAccesses            0                       # DTB write accesses
system.cpu.itb.stage2_mmu.stage2_tlb.instAccesses            0                       # ITB inst accesses
system.cpu.itb.stage2_mmu.stage2_tlb.hits            0                       # Total TLB (inst and data) hits
system.cpu.itb.stage2_mmu.stage2_tlb.misses            0                       # Total TLB (inst and data) misses
system.cpu.itb.stage2_mmu.stage2_tlb.accesses            0                       # Total TLB (inst and data) accesses
system.cpu.itb.stage2_mmu.stage2_tlb.walker.walks            0                       # Table walker walks requested
system.cpu.itb.stage2_mmu.stage2_tlb.walker.requestOrigin_Requested::Data            0                       # Table walker requests started/completed, data/inst
system.cpu.itb.stage2_mmu.stage2_tlb.walker.requestOrigin_Requested::Inst            0                       # Table walker requests started/completed, data/inst
system.cpu.itb.stage2_mmu.stage2_tlb.walker.requestOrigin_Requested::total            0                       # Table walker requests started/completed, data/inst
system.cpu.itb.stage2_mmu.stage2_tlb.walker.requestOrigin_Completed::Data            0                       # Table walker requests started/completed, data/inst
system.cpu.itb.stage2_mmu.stage2_tlb.walker.requestOrigin_Completed::Inst            0                       # Table walker requests started/completed, data/inst
system.cpu.itb.stage2_mmu.stage2_tlb.walker.requestOrigin_Completed::total            0                       # Table walker requests started/completed, data/inst
system.cpu.itb.stage2_mmu.stage2_tlb.walker.requestOrigin::total            0                       # Table walker requests started/completed, data/inst
system.cpu.itb.stage2_mmu.stage2_tlb.walker.power_state.pwrStateResidencyTicks::UNDEFINED 516094077500                       # Cumulative time (in ticks) in various power states
system.cpu.itb.walker.walks                         0                       # Table walker walks requested
system.cpu.itb.walker.requestOrigin_Requested::Data            0                       # Table walker requests started/completed, data/inst
system.cpu.itb.walker.requestOrigin_Requested::Inst            0                       # Table walker requests started/completed, data/inst
system.cpu.itb.walker.requestOrigin_Requested::total            0                       # Table walker requests started/completed, data/inst
system.cpu.itb.walker.requestOrigin_Completed::Data            0                       # Table walker requests started/completed, data/inst
system.cpu.itb.walker.requestOrigin_Completed::Inst            0                       # Table walker requests started/completed, data/inst
system.cpu.itb.walker.requestOrigin_Completed::total            0                       # Table walker requests started/completed, data/inst
system.cpu.itb.walker.requestOrigin::total            0                       # Table walker requests started/completed, data/inst
system.cpu.itb.walker.power_state.pwrStateResidencyTicks::UNDEFINED 516094077500                       # Cumulative time (in ticks) in various power states
system.cpu.power_state.pwrStateResidencyTicks::ON 516094077500                       # Cumulative time (in ticks) in various power states
system.cpu.thread_0.numInsts                100000000                       # Number of Instructions committed
system.cpu.thread_0.numOps                  184608571                       # Number of Ops committed
system.cpu.thread_0.numMemRefs                      0                       # Number of Memory References
system.cpu_clk_domain.clock                       500                       # Clock period in ticks
system.cpu_voltage_domain.voltage                   1                       # Voltage in Volts
system.l2.demand_hits::.cpu.inst                   92                       # number of demand (read+write) hits
system.l2.demand_hits::.cpu.data                   83                       # number of demand (read+write) hits
system.l2.demand_hits::total                      175                       # number of demand (read+write) hits
system.l2.overall_hits::.cpu.inst                  92                       # number of overall hits
system.l2.overall_hits::.cpu.data                  83                       # number of overall hits
system.l2.overall_hits::total                     175                       # number of overall hits
system.l2.demand_misses::.cpu.inst                730                       # number of demand (read+write) misses
system.l2.demand_misses::.cpu.data            5287688                       # number of demand (read+write) misses
system.l2.demand_misses::total                5288418                       # number of demand (read+write) misses
system.l2.overall_misses::.cpu.inst               730                       # number of overall misses
system.l2.overall_misses::.cpu.data           5287688                       # number of overall misses
system.l2.overall_misses::total               5288418                       # number of overall misses
system.l2.demand_miss_latency::.cpu.inst     56931500                       # number of demand (read+write) miss cycles
system.l2.demand_miss_latency::.cpu.data 425999377000                       # number of demand (read+write) miss cycles
system.l2.demand_miss_latency::total     426056308500                       # number of demand (read+write) miss cycles
system.l2.overall_miss_latency::.cpu.inst     56931500                       # number of overall miss cycles
system.l2.overall_miss_latency::.cpu.data 425999377000                       # number of overall miss cycles
system.l2.overall_miss_latency::total    426056308500                       # number of overall miss cycles
system.l2.demand_accesses::.cpu.inst              822                       # number of demand (read+write) accesses
system.l2.demand_accesses::.cpu.data          5287771                       # number of demand (read+write) accesses
system.l2.demand_accesses::total              5288593                       # number of demand (read+write) accesses
system.l2.overall_accesses::.cpu.inst             822                       # number of overall (read+write) accesses
system.l2.overall_accesses::.cpu.data         5287771                       # number of overall (read+write) accesses
system.l2.overall_accesses::total             5288593                       # number of overall (read+write) accesses
system.l2.demand_miss_rate::.cpu.inst        0.888078                       # miss rate for demand accesses
system.l2.demand_miss_rate::.cpu.data        0.999984                       # miss rate for demand accesses
system.l2.demand_miss_rate::total            0.999967                       # miss rate for demand accesses
system.l2.overall_miss_rate::.cpu.inst       0.888078                       # miss rate for overall accesses
system.l2.overall_miss_rate::.cpu.data       0.999984                       # miss rate for overall accesses
system.l2.overall_miss_rate::total           0.999967                       # miss rate for overall accesses
system.l2.demand_avg_miss_latency::.cpu.inst 77988.356164                       # average overall miss latency
system.l2.demand_avg_miss_latency::.cpu.data 80564.393550                       # average overall miss latency
system.l2.demand_avg_miss_latency::total 80564.037960                       # average overall miss latency
system.l2.overall_avg_miss_latency::.cpu.inst 77988.356164                       # average overall miss latency
system.l2.overall_avg_miss_latency::.cpu.data 80564.393550                       # average overall miss latency
system.l2.overall_avg_miss_latency::total 80564.037960                       # average overall miss latency
system.l2.blocked_cycles::no_mshrs                  0                       # number of cycles access was blocked
system.l2.blocked_cycles::no_targets                0                       # number of cycles access was blocked
system.l2.blocked::no_mshrs                         0                       # number of cycles access was blocked
system.l2.blocked::no_targets                       0                       # number of cycles access was blocked
system.l2.avg_blocked_cycles::no_mshrs            nan                       # average number of cycles each access was blocked
system.l2.avg_blocked_cycles::no_targets          nan                       # average number of cycles each access was blocked
system.l2.writebacks::.writebacks             5254597                       # number of writebacks
system.l2.writebacks::total                   5254597                       # number of writebacks
system.l2.demand_mshr_hits::.cpu.inst               1                       # number of demand (read+write) MSHR hits
system.l2.demand_mshr_hits::.cpu.data              12                       # number of demand (read+write) MSHR hits
system.l2.demand_mshr_hits::total                  13                       # number of demand (read+write) MSHR hits
system.l2.overall_mshr_hits::.cpu.inst              1                       # number of overall MSHR hits
system.l2.overall_mshr_hits::.cpu.data             12                       # number of overall MSHR hits
system.l2.overall_mshr_hits::total                 13                       # number of overall MSHR hits
system.l2.demand_mshr_misses::.cpu.inst           729                       # number of demand (read+write) MSHR misses
system.l2.demand_mshr_misses::.cpu.data       5287676                       # number of demand (read+write) MSHR misses
system.l2.demand_mshr_misses::total           5288405                       # number of demand (read+write) MSHR misses
system.l2.overall_mshr_misses::.cpu.inst          729                       # number of overall MSHR misses
system.l2.overall_mshr_misses::.cpu.data      5287676                       # number of overall MSHR misses
system.l2.overall_mshr_misses::total          5288405                       # number of overall MSHR misses
system.l2.demand_mshr_miss_latency::.cpu.inst     49573000                       # number of demand (read+write) MSHR miss cycles
system.l2.demand_mshr_miss_latency::.cpu.data 373121759000                       # number of demand (read+write) MSHR miss cycles
system.l2.demand_mshr_miss_latency::total 373171332000                       # number of demand (read+write) MSHR miss cycles
system.l2.overall_mshr_miss_latency::.cpu.inst     49573000                       # number of overall MSHR miss cycles
system.l2.overall_mshr_miss_latency::.cpu.data 373121759000                       # number of overall MSHR miss cycles
system.l2.overall_mshr_miss_latency::total 373171332000                       # number of overall MSHR miss cycles
system.l2.demand_mshr_miss_rate::.cpu.inst     0.886861                       # mshr miss rate for demand accesses
system.l2.demand_mshr_miss_rate::.cpu.data     0.999982                       # mshr miss rate for demand accesses
system.l2.demand_mshr_miss_rate::total       0.999964                       # mshr miss rate for demand accesses
system.l2.overall_mshr_miss_rate::.cpu.inst     0.886861                       # mshr miss rate for overall accesses
system.l2.overall_mshr_miss_rate::.cpu.data     0.999982                       # mshr miss rate for overall accesses
system.l2.overall_mshr_miss_rate::total      0.999964                       # mshr miss rate for overall accesses
system.l2.demand_avg_mshr_miss_latency::.cpu.inst 68001.371742                       # average overall mshr miss latency
system.l2.demand_avg_mshr_miss_latency::.cpu.data 70564.414121                       # average overall mshr miss latency
system.l2.demand_avg_mshr_miss_latency::total 70564.060809                       # average overall mshr miss latency
system.l2.overall_avg_mshr_miss_latency::.cpu.inst 68001.371742                       # average overall mshr miss latency
system.l2.overall_avg_mshr_miss_latency::.cpu.data 70564.414121                       # average overall mshr miss latency
system.l2.overall_avg_mshr_miss_latency::total 70564.060809                       # average overall mshr miss latency
system.l2.replacements                        5255804                       # number of replacements
system.l2.WritebackDirty_hits::.writebacks      5286884                       # number of WritebackDirty hits
system.l2.WritebackDirty_hits::total          5286884                       # number of WritebackDirty hits
system.l2.WritebackDirty_accesses::.writebacks      5286884                       # number of WritebackDirty accesses(hits+misses)
system.l2.WritebackDirty_accesses::total      5286884                       # number of WritebackDirty accesses(hits+misses)
system.l2.WritebackClean_hits::.writebacks          345                       # number of WritebackClean hits
system.l2.WritebackClean_hits::total              345                       # number of WritebackClean hits
system.l2.WritebackClean_accesses::.writebacks          345                       # number of WritebackClean accesses(hits+misses)
system.l2.WritebackClean_accesses::total          345                       # number of WritebackClean accesses(hits+misses)
system.l2.ReadExReq_hits::.cpu.data                16                       # number of ReadExReq hits
system.l2.ReadExReq_hits::total                    16                       # number of ReadExReq hits
system.l2.ReadExReq_misses::.cpu.data         5287335                       # number of ReadExReq misses
system.l2.ReadExReq_misses::total             5287335                       # number of ReadExReq misses
system.l2.ReadExReq_miss_latency::.cpu.data 425969865500                       # number of ReadExReq miss cycles
system.l2.ReadExReq_miss_latency::total  425969865500                       # number of ReadExReq miss cycles
system.l2.ReadExReq_accesses::.cpu.data       5287351                       # number of ReadExReq accesses(hits+misses)
system.l2.ReadExReq_accesses::total           5287351                       # number of ReadExReq accesses(hits+misses)
system.l2.ReadExReq_miss_rate::.cpu.data     0.999997                       # miss rate for ReadExReq accesses
system.l2.ReadExReq_miss_rate::total         0.999997                       # miss rate for ReadExReq accesses
system.l2.ReadExReq_avg_miss_latency::.cpu.data 80564.190750                       # average ReadExReq miss latency
system.l2.ReadExReq_avg_miss_latency::total 80564.190750                       # average ReadExReq miss latency
system.l2.ReadExReq_mshr_misses::.cpu.data      5287335                       # number of ReadExReq MSHR misses
system.l2.ReadExReq_mshr_misses::total        5287335                       # number of ReadExReq MSHR misses
system.l2.ReadExReq_mshr_miss_latency::.cpu.data 373096515500                       # number of ReadExReq MSHR miss cycles
system.l2.ReadExReq_mshr_miss_latency::total 373096515500                       # number of ReadExReq MSHR miss cycles
system.l2.ReadExReq_mshr_miss_rate::.cpu.data     0.999997                       # mshr miss rate for ReadExReq accesses
system.l2.ReadExReq_mshr_miss_rate::total     0.999997                       # mshr miss rate for ReadExReq accesses
system.l2.ReadExReq_avg_mshr_miss_latency::.cpu.data 70564.190750                       # average ReadExReq mshr miss latency
system.l2.ReadExReq_avg_mshr_miss_latency::total 70564.190750                       # average ReadExReq mshr miss latency
system.l2.ReadCleanReq_hits::.cpu.inst             92                       # number of ReadCleanReq hits
system.l2.ReadCleanReq_hits::total                 92                       # number of ReadCleanReq hits
system.l2.ReadCleanReq_misses::.cpu.inst          730                       # number of ReadCleanReq misses
system.l2.ReadCleanReq_misses::total              730                       # number of ReadCleanReq misses
system.l2.ReadCleanReq_miss_latency::.cpu.inst     56931500                       # number of ReadCleanReq miss cycles
system.l2.ReadCleanReq_miss_latency::total     56931500                       # number of ReadCleanReq miss cycles
system.l2.ReadCleanReq_accesses::.cpu.inst          822                       # number of ReadCleanReq accesses(hits+misses)
system.l2.ReadCleanReq_accesses::total            822                       # number of ReadCleanReq accesses(hits+misses)
system.l2.ReadCleanReq_miss_rate::.cpu.inst     0.888078                       # miss rate for ReadCleanReq accesses
system.l2.ReadCleanReq_miss_rate::total      0.888078                       # miss rate for ReadCleanReq accesses
system.l2.ReadCleanReq_avg_miss_latency::.cpu.inst 77988.356164                       # average ReadCleanReq miss latency
system.l2.ReadCleanReq_avg_miss_latency::total 77988.356164                       # average ReadCleanReq miss latency
system.l2.ReadCleanReq_mshr_hits::.cpu.inst            1                       # number of ReadCleanReq MSHR hits
system.l2.ReadCleanReq_mshr_hits::total             1                       # number of ReadCleanReq MSHR hits
system.l2.ReadCleanReq_mshr_misses::.cpu.inst          729                       # number of ReadCleanReq MSHR misses
system.l2.ReadCleanReq_mshr_misses::total          729                       # number of ReadCleanReq MSHR misses
system.l2.ReadCleanReq_mshr_miss_latency::.cpu.inst     49573000                       # number of ReadCleanReq MSHR miss cycles
system.l2.ReadCleanReq_mshr_miss_latency::total     49573000                       # number of ReadCleanReq MSHR miss cycles
system.l2.ReadCleanReq_mshr_miss_rate::.cpu.inst     0.886861                       # mshr miss rate for ReadCleanReq accesses
system.l2.ReadCleanReq_mshr_miss_rate::total     0.886861                       # mshr miss rate for ReadCleanReq accesses
system.l2.ReadCleanReq_avg_mshr_miss_latency::.cpu.inst 68001.371742                       # average ReadCleanReq mshr miss latency
system.l2.ReadCleanReq_avg_mshr_miss_latency::total 68001.371742                       # average ReadCleanReq mshr miss latency
system.l2.ReadSharedReq_hits::.cpu.data            67                       # number of ReadSharedReq hits
system.l2.ReadSharedReq_hits::total                67                       # number of ReadSharedReq hits
system.l2.ReadSharedReq_misses::.cpu.data          353                       # number of ReadSharedReq misses
system.l2.ReadSharedReq_misses::total             353                       # number of ReadSharedReq misses
system.l2.ReadSharedReq_miss_latency::.cpu.data     29511500                       # number of ReadSharedReq miss cycles
system.l2.ReadSharedReq_miss_latency::total     29511500                       # number of ReadSharedReq miss cycles
system.l2.ReadSharedReq_accesses::.cpu.data          420                       # number of ReadSharedReq accesses(hits+misses)
system.l2.ReadSharedReq_accesses::total           420                       # number of ReadSharedReq accesses(hits+misses)
system.l2.ReadSharedReq_miss_rate::.cpu.data     0.840476                       # miss rate for ReadSharedReq accesses
system.l2.ReadSharedReq_miss_rate::total     0.840476                       # miss rate for ReadSharedReq accesses
system.l2.ReadSharedReq_avg_miss_latency::.cpu.data 83601.983003                       # average ReadSharedReq miss latency
system.l2.ReadSharedReq_avg_miss_latency::total 83601.983003                       # average ReadSharedReq miss latency
system.l2.ReadSharedReq_mshr_hits::.cpu.data           12                       # number of ReadSharedReq MSHR hits
system.l2.ReadSharedReq_mshr_hits::total           12                       # number of ReadSharedReq MSHR hits
system.l2.ReadSharedReq_mshr_misses::.cpu.data          341                       # number of ReadSharedReq MSHR misses
system.l2.ReadSharedReq_mshr_misses::total          341                       # number of ReadSharedReq MSHR misses
system.l2.ReadSharedReq_mshr_miss_latency::.cpu.data     25243500                       # number of ReadSharedReq MSHR miss cycles
system.l2.ReadSharedReq_mshr_miss_latency::total     25243500                       # number of ReadSharedReq MSHR miss cycles
system.l2.ReadSharedReq_mshr_miss_rate::.cpu.data     0.811905                       # mshr miss rate for ReadSharedReq accesses
system.l2.ReadSharedReq_mshr_miss_rate::total     0.811905                       # mshr miss rate for ReadSharedReq accesses
system.l2.ReadSharedReq_avg_mshr_miss_latency::.cpu.data 74027.859238                       # average ReadSharedReq mshr miss latency
system.l2.ReadSharedReq_avg_mshr_miss_latency::total 74027.859238                       # average ReadSharedReq mshr miss latency
system.l2.power_state.pwrStateResidencyTicks::UNDEFINED 516094077500                       # Cumulative time (in ticks) in various power states
system.l2.tags.tagsinuse                 32520.787056                       # Cycle average of tags in use
system.l2.tags.total_refs                    10576092                       # Total number of references to valid blocks.
system.l2.tags.sampled_refs                   5288572                       # Sample count of references to valid blocks.
system.l2.tags.avg_refs                      1.999801                       # Average number of references to valid blocks.
system.l2.tags.warmup_cycle                     77000                       # Cycle when the warmup percentage was hit.
system.l2.tags.occ_blocks::.writebacks       0.949285                       # Average occupied blocks per requestor
system.l2.tags.occ_blocks::.cpu.inst         6.110045                       # Average occupied blocks per requestor
system.l2.tags.occ_blocks::.cpu.data     32513.727726                       # Average occupied blocks per requestor
system.l2.tags.occ_percent::.writebacks      0.000029                       # Average percentage of cache occupancy
system.l2.tags.occ_percent::.cpu.inst        0.000186                       # Average percentage of cache occupancy
system.l2.tags.occ_percent::.cpu.data        0.992240                       # Average percentage of cache occupancy
system.l2.tags.occ_percent::total            0.992456                       # Average percentage of cache occupancy
system.l2.tags.occ_task_id_blocks::1024         32768                       # Occupied blocks per task id
system.l2.tags.age_task_id_blocks_1024::0          105                       # Occupied blocks per task id
system.l2.tags.age_task_id_blocks_1024::1          926                       # Occupied blocks per task id
system.l2.tags.age_task_id_blocks_1024::2         9270                       # Occupied blocks per task id
system.l2.tags.age_task_id_blocks_1024::3        22467                       # Occupied blocks per task id
system.l2.tags.occ_task_id_percent::1024            1                       # Percentage of cache occupancy per task id
system.l2.tags.tag_accesses                  89897412                       # Number of tag accesses
system.l2.tags.data_accesses                 89897412                       # Number of data accesses
system.l2.tags.power_state.pwrStateResidencyTicks::UNDEFINED 516094077500                       # Cumulative time (in ticks) in various power states
system.mem_ctrls.avgPriority_.writebacks::samples   5254597.00                       # Average QoS priority value for accepted requests
system.mem_ctrls.avgPriority_.cpu.inst::samples       729.00                       # Average QoS priority value for accepted requests
system.mem_ctrls.avgPriority_.cpu.data::samples   5287676.00                       # Average QoS priority value for accepted requests
system.mem_ctrls.priorityMinLatency      0.000000018750                       # per QoS priority minimum request to response latency (s)
system.mem_ctrls.priorityMaxLatency      0.000348924500                       # per QoS priority maximum request to response latency (s)
system.mem_ctrls.numReadWriteTurnArounds       328352                       # Number of turnarounds from READ to WRITE
system.mem_ctrls.numWriteReadTurnArounds       328352                       # Number of turnarounds from WRITE to READ
system.mem_ctrls.numStayReadState            15623928                       # Number of times bus staying in READ state
system.mem_ctrls.numStayWriteState            4936764                       # Number of times bus staying in WRITE state
system.mem_ctrls.readReqs                     5288405                       # Number of read requests accepted
system.mem_ctrls.writeReqs                    5254597                       # Number of write requests accepted
system.mem_ctrls.readBursts                   5288405                       # Number of controller read bursts, including those serviced by the write queue
system.mem_ctrls.writeBursts                  5254597                       # Number of controller write bursts, including those merged in the write queue
system.mem_ctrls.servicedByWrQ                      0                       # Number of controller read bursts serviced by the write queue
system.mem_ctrls.mergedWrBursts                     0                       # Number of controller write bursts merged with an existing one
system.mem_ctrls.neitherReadNorWriteReqs            0                       # Number of requests that are neither read nor write
system.mem_ctrls.avgRdQLen                       1.00                       # Average read queue length when enqueuing
system.mem_ctrls.avgWrQLen                      25.83                       # Average write queue length when enqueuing
system.mem_ctrls.numRdRetry                         0                       # Number of times read queue was full causing retry
system.mem_ctrls.numWrRetry                         0                       # Number of times write queue was full causing retry
system.mem_ctrls.readPktSize::0                     0                       # Read request sizes (log2)
system.mem_ctrls.readPktSize::1                     0                       # Read request sizes (log2)
system.mem_ctrls.readPktSize::2                     0                       # Read request sizes (log2)
system.mem_ctrls.readPktSize::3                     0                       # Read request sizes (log2)
system.mem_ctrls.readPktSize::4                     0                       # Read request sizes (log2)
system.mem_ctrls.readPktSize::5                     0                       # Read request sizes (log2)
system.mem_ctrls.readPktSize::6               5288405                       # Read request sizes (log2)
system.mem_ctrls.writePktSize::0                    0                       # Write request sizes (log2)
[...]
system.mem_ctrls.dram.bw_write::.writebacks    651614158                       # Write bandwidth from this memory (bytes/s)
system.mem_ctrls.dram.bw_write::total       651614158                       # Write bandwidth from this memory (bytes/s)
system.mem_ctrls.dram.bw_total::.writebacks    651614158                       # Total bandwidth to/from this memory (bytes/s)
system.mem_ctrls.dram.bw_total::.cpu.inst        90402                       # Total bandwidth to/from this memory (bytes/s)
system.mem_ctrls.dram.bw_total::.cpu.data    655716232                       # Total bandwidth to/from this memory (bytes/s)
system.mem_ctrls.dram.bw_total::total      1307420793                       # Total bandwidth to/from this memory (bytes/s)
system.mem_ctrls.dram.readBursts              5288405                       # Number of DRAM read bursts
system.mem_ctrls.dram.writeBursts             5254567                       # Number of DRAM write bursts
system.mem_ctrls.dram.perBankRdBursts::0       330576                       # Per bank write bursts
system.mem_ctrls.dram.perBankRdBursts::1       330460                       # Per bank write bursts
system.mem_ctrls.dram.perBankRdBursts::2       330417                       # Per bank write bursts
system.mem_ctrls.dram.perBankRdBursts::3       330410                       # Per bank write bursts
system.mem_ctrls.dram.perBankRdBursts::4       330442                       # Per bank write bursts
system.mem_ctrls.dram.perBankRdBursts::5       330582                       # Per bank write bursts
system.mem_ctrls.dram.perBankRdBursts::6       330618                       # Per bank write bursts
system.mem_ctrls.dram.perBankRdBursts::7       330505                       # Per bank write bursts
system.mem_ctrls.dram.perBankRdBursts::8       330528                       # Per bank write bursts
system.mem_ctrls.dram.perBankRdBursts::9       330460                       # Per bank write bursts
system.mem_ctrls.dram.perBankRdBursts::10       330458                       # Per bank write bursts
system.mem_ctrls.dram.perBankRdBursts::11       330456                       # Per bank write bursts
system.mem_ctrls.dram.perBankRdBursts::12       330627                       # Per bank write bursts
system.mem_ctrls.dram.perBankRdBursts::13       330547                       # Per bank write bursts
system.mem_ctrls.dram.perBankRdBursts::14       330700                       # Per bank write bursts
system.mem_ctrls.dram.perBankRdBursts::15       330619                       # Per bank write bursts
system.mem_ctrls.dram.perBankWrBursts::0       328499                       # Per bank write bursts
system.mem_ctrls.dram.perBankWrBursts::1       328325                       # Per bank write bursts
system.mem_ctrls.dram.perBankWrBursts::2       328320                       # Per bank write bursts
system.mem_ctrls.dram.perBankWrBursts::3       328320                       # Per bank write bursts
system.mem_ctrls.dram.perBankWrBursts::4       328355                       # Per bank write bursts
system.mem_ctrls.dram.perBankWrBursts::5       328446                       # Per bank write bursts
system.mem_ctrls.dram.perBankWrBursts::6       328451                       # Per bank write bursts
system.mem_ctrls.dram.perBankWrBursts::7       328432                       # Per bank write bursts
system.mem_ctrls.dram.perBankWrBursts::8       328417                       # Per bank write bursts
system.mem_ctrls.dram.perBankWrBursts::9       328264                       # Per bank write bursts
system.mem_ctrls.dram.perBankWrBursts::10       328317                       # Per bank write bursts
system.mem_ctrls.dram.perBankWrBursts::11       328360                       # Per bank write bursts
system.mem_ctrls.dram.perBankWrBursts::12       328505                       # Per bank write bursts
system.mem_ctrls.dram.perBankWrBursts::13       328456                       # Per bank write bursts
system.mem_ctrls.dram.perBankWrBursts::14       328580                       # Per bank write bursts
system.mem_ctrls.dram.perBankWrBursts::15       328520                       # Per bank write bursts
system.mem_ctrls.dram.totQLat             58437998500                       # Total ticks spent queuing
system.mem_ctrls.dram.totBusLat           26442025000                       # Total ticks spent in databus transfers
system.mem_ctrls.dram.totMemAccLat       157595592250                       # Total ticks spent from burst creation until serviced by the DRAM
system.mem_ctrls.dram.avgQLat                11050.21                       # Average queueing delay per DRAM burst
system.mem_ctrls.dram.avgBusLat               5000.00                       # Average bus latency per DRAM burst
system.mem_ctrls.dram.avgMemAccLat           29800.21                       # Average memory access latency per DRAM burst
system.mem_ctrls.dram.readRowHits             4857794                       # Number of row buffer hits during reads
system.mem_ctrls.dram.writeRowHits            4879937                       # Number of row buffer hits during writes
system.mem_ctrls.dram.readRowHitRate            91.86                       # Row buffer hit rate for reads
system.mem_ctrls.dram.writeRowHitRate           92.87                       # Row buffer hit rate for writes
system.mem_ctrls.dram.bytesPerActivate::samples       805240                       # Bytes accessed per row activation
system.mem_ctrls.dram.bytesPerActivate::mean   837.948160                       # Bytes accessed per row activation
system.mem_ctrls.dram.bytesPerActivate::gmean   724.600745                       # Bytes accessed per row activation
system.mem_ctrls.dram.bytesPerActivate::stdev   304.467303                       # Bytes accessed per row activation
system.mem_ctrls.dram.bytesPerActivate::0-127        26729      3.32%      3.32% # Bytes accessed per row activation
system.mem_ctrls.dram.bytesPerActivate::128-255        37626      4.67%      7.99% # Bytes accessed per row activation
system.mem_ctrls.dram.bytesPerActivate::256-383        34755      4.32%     12.31% # Bytes accessed per row activation
system.mem_ctrls.dram.bytesPerActivate::384-511        41169      5.11%     17.42% # Bytes accessed per row activation
system.mem_ctrls.dram.bytesPerActivate::512-639        33745      4.19%     21.61% # Bytes accessed per row activation
system.mem_ctrls.dram.bytesPerActivate::640-767        38114      4.73%     26.34% # Bytes accessed per row activation
system.mem_ctrls.dram.bytesPerActivate::768-895        28638      3.56%     29.90% # Bytes accessed per row activation
system.mem_ctrls.dram.bytesPerActivate::896-1023        40268      5.00%     34.90% # Bytes accessed per row activation
system.mem_ctrls.dram.bytesPerActivate::1024-1151       524196     65.10%    100.00% # Bytes accessed per row activation
system.mem_ctrls.dram.bytesPerActivate::total       805240                       # Bytes accessed per row activation
system.mem_ctrls.dram.bytesRead             338457920                       # Total number of bytes read from DRAM
system.mem_ctrls.dram.bytesWritten          336292288                       # Total number of bytes written to DRAM
system.mem_ctrls.dram.avgRdBW              655.806634                       # Average DRAM read bandwidth in MiBytes/s
system.mem_ctrls.dram.avgWrBW              651.610438                       # Average DRAM write bandwidth in MiBytes/s
system.mem_ctrls.dram.peakBW                 12800.00                       # Theoretical peak bandwidth in MiByte/s
system.mem_ctrls.dram.busUtil                   10.21                       # Data bus utilization in percentage
system.mem_ctrls.dram.busUtilRead                5.12                       # Data bus utilization in percentage for reads
system.mem_ctrls.dram.busUtilWrite               5.09                       # Data bus utilization in percentage for writes
system.mem_ctrls.dram.pageHitRate               92.36                       # Row buffer hit rate, read and write combined
system.mem_ctrls.dram.power_state.pwrStateResidencyTicks::UNDEFINED 516094077500                       # Cumulative time (in ticks) in various power states
system.mem_ctrls.dram.rank0.actEnergy      2875542180                       # Energy for activate commands per rank (pJ)
system.mem_ctrls.dram.rank0.preEnergy      1528386915                       # Energy for precharge commands per rank (pJ)
system.mem_ctrls.dram.rank0.readEnergy    18878231400                       # Energy for read commands per rank (pJ)
system.mem_ctrls.dram.rank0.writeEnergy   13713712560                       # Energy for write commands per rank (pJ)
system.mem_ctrls.dram.rank0.refreshEnergy 40739568480.000008                       # Energy for refresh commands per rank (pJ)
system.mem_ctrls.dram.rank0.actBackEnergy 123536246490                       # Energy for active background per rank (pJ)
system.mem_ctrls.dram.rank0.preBackEnergy  94149602400                       # Energy for precharge background per rank (pJ)
system.mem_ctrls.dram.rank0.actPowerDownEnergy            0                       # Energy for active power-down per rank (pJ)
system.mem_ctrls.dram.rank0.prePowerDownEnergy            0                       # Energy for precharge power-down per rank (pJ)
system.mem_ctrls.dram.rank0.selfRefreshEnergy            0                       # Energy for self refresh per rank (pJ)
system.mem_ctrls.dram.rank0.totalEnergy  295421290425                       # Total energy per rank (pJ)
system.mem_ctrls.dram.rank0.averagePower   572.417517                       # Core power per rank (mW)
system.mem_ctrls.dram.rank0.totalIdleTime            0                       # Total Idle time Per DRAM Rank
system.mem_ctrls.dram.rank0.pwrStateTime::IDLE 240941704000                       # Time in different power states
system.mem_ctrls.dram.rank0.pwrStateTime::REF  17233320000                       # Time in different power states
system.mem_ctrls.dram.rank0.pwrStateTime::SREF            0                       # Time in different power states
system.mem_ctrls.dram.rank0.pwrStateTime::PRE_PDN            0                       # Time in different power states
system.mem_ctrls.dram.rank0.pwrStateTime::ACT 257919053500                       # Time in different power states
system.mem_ctrls.dram.rank0.pwrStateTime::ACT_PDN            0                       # Time in different power states
system.mem_ctrls.dram.rank1.actEnergy      2873878560                       # Energy for activate commands per rank (pJ)
system.mem_ctrls.dram.rank1.preEnergy      1527498885                       # Energy for precharge commands per rank (pJ)
system.mem_ctrls.dram.rank1.readEnergy    18880980300                       # Energy for read commands per rank (pJ)
system.mem_ctrls.dram.rank1.writeEnergy   13715127180                       # Energy for write commands per rank (pJ)
system.mem_ctrls.dram.rank1.refreshEnergy 40739568480.000008                       # Energy for refresh commands per rank (pJ)
system.mem_ctrls.dram.rank1.actBackEnergy 123581961630                       # Energy for active background per rank (pJ)
system.mem_ctrls.dram.rank1.preBackEnergy  94111105440                       # Energy for precharge background per rank (pJ)
system.mem_ctrls.dram.rank1.actPowerDownEnergy            0                       # Energy for active power-down per rank (pJ)
system.mem_ctrls.dram.rank1.prePowerDownEnergy            0                       # Energy for precharge power-down per rank (pJ)
system.mem_ctrls.dram.rank1.selfRefreshEnergy            0                       # Energy for self refresh per rank (pJ)
system.mem_ctrls.dram.rank1.totalEnergy  295430120475                       # Total energy per rank (pJ)
system.mem_ctrls.dram.rank1.averagePower   572.434626                       # Core power per rank (mW)
system.mem_ctrls.dram.rank1.totalIdleTime            0                       # Total Idle time Per DRAM Rank
system.mem_ctrls.dram.rank1.pwrStateTime::IDLE 240840494750                       # Time in different power states
system.mem_ctrls.dram.rank1.pwrStateTime::REF  17233320000                       # Time in different power states
system.mem_ctrls.dram.rank1.pwrStateTime::SREF            0                       # Time in different power states
system.mem_ctrls.dram.rank1.pwrStateTime::PRE_PDN            0                       # Time in different power states
system.mem_ctrls.dram.rank1.pwrStateTime::ACT 258020262750                       # Time in different power states
system.mem_ctrls.dram.rank1.pwrStateTime::ACT_PDN            0                       # Time in different power states
system.mem_ctrls.power_state.pwrStateResidencyTicks::UNDEFINED 516094077500                       # Cumulative time (in ticks) in various power states
system.membus.trans_dist::ReadResp               1070                       # Transaction distribution
system.membus.trans_dist::WritebackDirty      5254597                       # Transaction distribution
system.membus.trans_dist::CleanEvict              560                       # Transaction distribution
system.membus.trans_dist::ReadExReq           5287335                       # Transaction distribution
system.membus.trans_dist::ReadExResp          5287335                       # Transaction distribution
system.membus.trans_dist::ReadSharedReq          1070                       # Transaction distribution
system.membus.pkt_count_system.l2.mem_side_port::system.mem_ctrls.port     15831967                       # Packet count per connected requestor and responder (bytes)
system.membus.pkt_count::total               15831967                       # Packet count per connected requestor and responder (bytes)
system.membus.pkt_size_system.l2.mem_side_port::system.mem_ctrls.port    674752128                       # Cumulative packet size per connected requestor and responder (bytes)
system.membus.pkt_size::total               674752128                       # Cumulative packet size per connected requestor and responder (bytes)
system.membus.snoops                                0                       # Total snoops (count)
system.membus.snoopTraffic                          0                       # Total snoop traffic (bytes)
system.membus.snoop_fanout::samples           5288405                       # Request fanout histogram
system.membus.snoop_fanout::mean                    0                       # Request fanout histogram
system.membus.snoop_fanout::stdev                   0                       # Request fanout histogram
system.membus.snoop_fanout::underflows              0      0.00%      0.00% # Request fanout histogram
system.membus.snoop_fanout::0                 5288405    100.00%    100.00% # Request fanout histogram
system.membus.snoop_fanout::1                       0      0.00%    100.00% # Request fanout histogram
system.membus.snoop_fanout::overflows               0      0.00%    100.00% # Request fanout histogram
system.membus.snoop_fanout::min_value               0                       # Request fanout histogram
system.membus.snoop_fanout::max_value               0                       # Request fanout histogram
system.membus.snoop_fanout::total             5288405                       # Request fanout histogram
system.membus.power_state.pwrStateResidencyTicks::UNDEFINED 516094077500                       # Cumulative time (in ticks) in various power states
system.membus.reqLayer0.occupancy         31584650500                       # Layer occupancy (ticks)
system.membus.reqLayer0.utilization               6.1                       # Layer utilization (%)
system.membus.respLayer1.occupancy        27814537500                       # Layer occupancy (ticks)
system.membus.respLayer1.utilization              5.4                       # Layer utilization (%)
system.tol2bus.trans_dist::ReadResp              1242                       # Transaction distribution
system.tol2bus.trans_dist::WritebackDirty     10541481                       # Transaction distribution
system.tol2bus.trans_dist::WritebackClean          356                       # Transaction distribution
system.tol2bus.trans_dist::CleanEvict            1582                       # Transaction distribution
system.tol2bus.trans_dist::ReadExReq          5287351                       # Transaction distribution
system.tol2bus.trans_dist::ReadExResp         5287351                       # Transaction distribution
system.tol2bus.trans_dist::ReadCleanReq           822                       # Transaction distribution
system.tol2bus.trans_dist::ReadSharedReq          420                       # Transaction distribution
system.tol2bus.pkt_count_system.cpu.icache.mem_side_port::system.l2.cpu_side_port         2000                       # Packet count per connected requestor and responder (bytes)
system.tol2bus.pkt_count_system.cpu.dcache.mem_side_port::system.l2.cpu_side_port     15862801                       # Packet count per connected requestor and responder (bytes)
system.tol2bus.pkt_count::total              15864801                       # Packet count per connected requestor and responder (bytes)
system.tol2bus.pkt_size_system.cpu.icache.mem_side_port::system.l2.cpu_side_port        75392                       # Cumulative packet size per connected requestor and responder (bytes)
system.tol2bus.pkt_size_system.cpu.dcache.mem_side_port::system.l2.cpu_side_port    676777920                       # Cumulative packet size per connected requestor and responder (bytes)
system.tol2bus.pkt_size::total              676853312                       # Cumulative packet size per connected requestor and responder (bytes)
system.tol2bus.snoops                         5255804                       # Total snoops (count)
system.tol2bus.snoopTraffic                 336294208                       # Total snoop traffic (bytes)
system.tol2bus.snoop_fanout::samples         10544397                       # Request fanout histogram
system.tol2bus.snoop_fanout::mean            0.000071                       # Request fanout histogram
system.tol2bus.snoop_fanout::stdev           0.008433                       # Request fanout histogram
system.tol2bus.snoop_fanout::underflows             0      0.00%      0.00% # Request fanout histogram
system.tol2bus.snoop_fanout::0               10543647     99.99%     99.99% # Request fanout histogram
system.tol2bus.snoop_fanout::1                    750      0.01%    100.00% # Request fanout histogram
system.tol2bus.snoop_fanout::2                      0      0.00%    100.00% # Request fanout histogram
system.tol2bus.snoop_fanout::overflows              0      0.00%    100.00% # Request fanout histogram
system.tol2bus.snoop_fanout::min_value              0                       # Request fanout histogram
system.tol2bus.snoop_fanout::max_value              1                       # Request fanout histogram
system.tol2bus.snoop_fanout::total           10544397                       # Request fanout histogram
system.tol2bus.power_state.pwrStateResidencyTicks::UNDEFINED 516094077500                       # Cumulative time (in ticks) in various power states
system.tol2bus.reqLayer0.occupancy        10575344000                       # Layer occupancy (ticks)
system.tol2bus.reqLayer0.utilization              2.0                       # Layer utilization (%)
system.tol2bus.respLayer0.occupancy           1233499                       # Layer occupancy (ticks)
system.tol2bus.respLayer0.utilization             0.0                       # Layer utilization (%)
system.tol2bus.respLayer1.occupancy        7931662488                       # Layer occupancy (ticks)
system.tol2bus.respLayer1.utilization             1.5                       # Layer utilization (%)
system.voltage_domain.voltage                       1                       # Voltage in Volts

---------- End Simulation Statistics   ----------
