
---------- Begin Simulation Statistics ----------
final_tick                                  114730000                       # Number of ticks from beginning of simulation (restored from checkpoints and never reset)
host_inst_rate                                 192082                       # Simulator instruction rate (inst/s)
host_mem_usage                                 656000                       # Number of bytes of host memory used
host_op_rate                                   227273                       # Simulator op (including micro ops) rate (op/s)
host_seconds                                     0.12                       # Real time elapsed on the host
host_tick_rate                              920703683                       # Simulator tick rate (ticks/s)
sim_freq                                 1000000000000                       # Frequency of simulated ticks
sim_insts                                       23914                       # Number of instructions simulated
sim_ops                                         28317                       # Number of ops (including micro ops) simulated
sim_seconds                                  0.000115                       # Number of seconds simulated
sim_ticks                                   114730000                       # Number of ticks simulated
system.cpu.committedInsts                       23914                       # Number of instructions committed
system.cpu.committedOps                         28317                       # Number of ops (including micro ops) committed
system.cpu.cpi                               1.919043                       # CPI: cycles per instruction
system.cpu.discardedOps                          2323                       # Number of ops (including micro ops) which were discarded before commit
system.cpu.idleCycles                            8850                       # Total number of cycles that the object has spent stopped
system.cpu.ipc                               0.521093                       # IPC: instructions per cycle
system.cpu.numCycles                            45892                       # number of cpu cycles simulated
system.cpu.numFetchSuspends                         0                       # Number of times Execute suspended instruction fetching
system.cpu.numWorkItemsCompleted                    0                       # number of work items this cpu completed
system.cpu.numWorkItemsStarted                      0                       # number of work items this cpu started
system.cpu.op_class_0::No_OpClass                   0      0.00%      0.00% # Class of committed instruction
system.cpu.op_class_0::IntAlu                   18967     66.98%     66.98% # Class of committed instruction
system.cpu.op_class_0::IntMult                     70      0.25%     67.23% # Class of committed instruction
system.cpu.op_class_0::IntDiv                       0      0.00%     67.23% # Class of committed instruction
system.cpu.op_class_0::FloatAdd                     0      0.00%     67.23% # Class of committed instruction
system.cpu.op_class_0::FloatCmp                     0      0.00%     67.23% # Class of committed instruction
system.cpu.op_class_0::FloatCvt                     0      0.00%     67.23% # Class of committed instruction
system.cpu.op_class_0::FloatMult                    0      0.00%     67.23% # Class of committed instruction
system.cpu.op_class_0::FloatMultAcc                 0      0.00%     67.23% # Class of committed instruction
system.cpu.op_class_0::FloatDiv                     0      0.00%     67.23% # Class of committed instruction
system.cpu.op_class_0::FloatMisc                    0      0.00%     67.23% # Class of committed instruction
system.cpu.op_class_0::FloatSqrt                    0      0.00%     67.23% # Class of committed instruction
system.cpu.op_class_0::SimdAdd                      0      0.00%     67.23% # Class of committed instruction
system.cpu.op_class_0::SimdAddAcc                   0      0.00%     67.23% # Class of committed instruction
system.cpu.op_class_0::SimdAlu                      0      0.00%     67.23% # Class of committed instruction
system.cpu.op_class_0::SimdCmp                      0      0.00%     67.23% # Class of committed instruction
system.cpu.op_class_0::SimdCvt                      0      0.00%     67.23% # Class of committed instruction
system.cpu.op_class_0::SimdMisc                     0      0.00%     67.23% # Class of committed instruction
system.cpu.op_class_0::SimdMult                     0      0.00%     67.23% # Class of committed instruction
system.cpu.op_class_0::SimdMultAcc                  0      0.00%     67.23% # Class of committed instruction
system.cpu.op_class_0::SimdShift                    0      0.00%     67.23% # Class of committed instruction
system.cpu.op_class_0::SimdShiftAcc                 0      0.00%     67.23% # Class of committed instruction
system.cpu.op_class_0::SimdDiv                      0      0.00%     67.23% # Class of committed instruction
system.cpu.op_class_0::SimdSqrt                     0      0.00%     67.23% # Class of committed instruction
system.cpu.op_class_0::SimdFloatAdd                 0      0.00%     67.23% # Class of committed instruction
system.cpu.op_class_0::SimdFloatAlu                 0      0.00%     67.23% # Class of committed instruction
system.cpu.op_class_0::SimdFloatCmp                 0      0.00%     67.23% # Class of committed instruction
system.cpu.op_class_0::SimdFloatCvt                 0      0.00%     67.23% # Class of committed instruction
system.cpu.op_class_0::SimdFloatDiv                 0      0.00%     67.23% # Class of committed instruction
system.cpu.op_class_0::SimdFloatMisc               21      0.07%     67.30% # Class of committed instruction
system.cpu.op_class_0::SimdFloatMult                0      0.00%     67.30% # Class of committed instruction
system.cpu.op_class_0::SimdFloatMultAcc             0      0.00%     67.30% # Class of committed instruction
system.cpu.op_class_0::SimdFloatSqrt                0      0.00%     67.30% # Class of committed instruction
system.cpu.op_class_0::SimdReduceAdd                0      0.00%     67.30% # Class of committed instruction
system.cpu.op_class_0::SimdReduceAlu                0      0.00%     67.30% # Class of committed instruction
system.cpu.op_class_0::SimdReduceCmp                0      0.00%     67.30% # Class of committed instruction
system.cpu.op_class_0::SimdFloatReduceAdd            0      0.00%     67.30% # Class of committed instruction
system.cpu.op_class_0::SimdFloatReduceCmp            0      0.00%     67.30% # Class of committed instruction
system.cpu.op_class_0::SimdAes                      0      0.00%     67.30% # Class of committed instruction
system.cpu.op_class_0::SimdAesMix                   0      0.00%     67.30% # Class of committed instruction
system.cpu.op_class_0::SimdSha1Hash                 0      0.00%     67.30% # Class of committed instruction
system.cpu.op_class_0::SimdSha1Hash2                0      0.00%     67.30% # Class of committed instruction
system.cpu.op_class_0::SimdSha256Hash               0      0.00%     67.30% # Class of committed instruction
system.cpu.op_class_0::SimdSha256Hash2              0      0.00%     67.30% # Class of committed instruction
system.cpu.op_class_0::SimdShaSigma2                0      0.00%     67.30% # Class of committed instruction
system.cpu.op_class_0::SimdShaSigma3                0      0.00%     67.30% # Class of committed instruction
system.cpu.op_class_0::SimdPredAlu                  0      0.00%     67.30% # Class of committed instruction
system.cpu.op_class_0::MemRead                   4638     16.38%     83.68% # Class of committed instruction
system.cpu.op_class_0::MemWrite                  4621     16.32%    100.00% # Class of committed instruction
system.cpu.op_class_0::FloatMemRead                 0      0.00%    100.00% # Class of committed instruction
system.cpu.op_class_0::FloatMemWrite                0      0.00%    100.00% # Class of committed instruction
system.cpu.op_class_0::IprAccess                    0      0.00%    100.00% # Class of committed instruction
system.cpu.op_class_0::InstPrefetch                 0      0.00%    100.00% # Class of committed instruction
system.cpu.op_class_0::total                    28317                       # Class of committed instruction
system.cpu.tickCycles                           37042                       # Number of cycles that the object actually ticked
system.cpu.workload.numSyscalls                    35                       # Number of system calls
system.membus.snoop_filter.hit_multi_requests            6                       # Number of requests hitting in the snoop filter with multiple (>1) holders of the requested data.
system.membus.snoop_filter.hit_multi_snoops            0                       # Number of snoops hitting in the snoop filter with multiple (>1) holders of the requested data.
system.membus.snoop_filter.hit_single_requests          234                       # Number of requests hitting in the snoop filter with a single holder of the requested data.
system.membus.snoop_filter.hit_single_snoops            0                       # Number of snoops hitting in the snoop filter with a single holder of the requested data.
system.membus.snoop_filter.tot_requests           909                       # Total number of requests made to the snoop filter.
system.membus.snoop_filter.tot_snoops               0                       # Total number of snoops made to the snoop filter.
system.clk_domain.clock                          1000                       # Clock period in ticks
system.cpu.branchPred.lookups                    6557                       # Number of BP lookups
system.cpu.branchPred.condPredicted              4326                       # Number of conditional branches predicted
system.cpu.branchPred.condIncorrect               717                       # Number of conditional branches incorrect
system.cpu.branchPred.BTBLookups                 2804                       # Number of BTB lookups
system.cpu.branchPred.BTBHits                    1805                       # Number of BTB hits
system.cpu.branchPred.BTBHitPct             64.372325                       # BTB Hit Percentage
system.cpu.branchPred.RASUsed                     676                       # Number of times the RAS was used to get a target.
system.cpu.branchPred.RASIncorrect                  0                       # Number of incorrect RAS predictions.
system.cpu.branchPred.indirectLookups             419                       # Number of indirect predictor lookups.
system.cpu.branchPred.indirectHits                204                       # Number of indirect target hits.
system.cpu.branchPred.indirectMisses              215                       # Number of indirect misses.
system.cpu.branchPred.indirectMispredicted           92                       # Number of mispredicted indirect branches.
system.cpu.dcache.demand_hits::.cpu.data         8957                       # number of demand (read+write) hits
system.cpu.dcache.demand_hits::total             8957                       # number of demand (read+write) hits
system.cpu.dcache.overall_hits::.cpu.data         8979                       # number of overall hits
system.cpu.dcache.overall_hits::total            8979                       # number of overall hits
system.cpu.dcache.demand_misses::.cpu.data          222                       # number of demand (read+write) misses
system.cpu.dcache.demand_misses::total            222                       # number of demand (read+write) misses
system.cpu.dcache.overall_misses::.cpu.data          230                       # number of overall misses
system.cpu.dcache.overall_misses::total           230                       # number of overall misses
system.cpu.dcache.demand_miss_latency::.cpu.data     14345500                       # number of demand (read+write) miss cycles
system.cpu.dcache.demand_miss_latency::total     14345500                       # number of demand (read+write) miss cycles
system.cpu.dcache.overall_miss_latency::.cpu.data     14345500                       # number of overall miss cycles
system.cpu.dcache.overall_miss_latency::total     14345500                       # number of overall miss cycles
system.cpu.dcache.demand_accesses::.cpu.data         9179                       # number of demand (read+write) accesses
system.cpu.dcache.demand_accesses::total         9179                       # number of demand (read+write) accesses
system.cpu.dcache.overall_accesses::.cpu.data         9209                       # number of overall (read+write) accesses
system.cpu.dcache.overall_accesses::total         9209                       # number of overall (read+write) accesses
system.cpu.dcache.demand_miss_rate::.cpu.data     0.024186                       # miss rate for demand accesses
system.cpu.dcache.demand_miss_rate::total     0.024186                       # miss rate for demand accesses
system.cpu.dcache.overall_miss_rate::.cpu.data     0.024976                       # miss rate for overall accesses
system.cpu.dcache.overall_miss_rate::total     0.024976                       # miss rate for overall accesses
system.cpu.dcache.demand_avg_miss_latency::.cpu.data 64619.369369                       # average overall miss latency
system.cpu.dcache.demand_avg_miss_latency::total 64619.369369                       # average overall miss latency
system.cpu.dcache.overall_avg_miss_latency::.cpu.data 62371.739130                       # average overall miss latency
system.cpu.dcache.overall_avg_miss_latency::total 62371.739130                       # average overall miss latency
system.cpu.dcache.blocked_cycles::no_mshrs            0                       # number of cycles access was blocked
system.cpu.dcache.blocked_cycles::no_targets            0                       # number of cycles access was blocked
system.cpu.dcache.blocked::no_mshrs                 0                       # number of cycles access was blocked
system.cpu.dcache.blocked::no_targets               0                       # number of cycles access was blocked
system.cpu.dcache.avg_blocked_cycles::no_mshrs          nan                       # average number of cycles each access was blocked
system.cpu.dcache.avg_blocked_cycles::no_targets          nan                       # average number of cycles each access was blocked
system.cpu.dcache.demand_mshr_hits::.cpu.data           52                       # number of demand (read+write) MSHR hits
system.cpu.dcache.demand_mshr_hits::total           52                       # number of demand (read+write) MSHR hits
system.cpu.dcache.overall_mshr_hits::.cpu.data           52                       # number of overall MSHR hits
system.cpu.dcache.overall_mshr_hits::total           52                       # number of overall MSHR hits
system.cpu.dcache.demand_mshr_misses::.cpu.data          170                       # number of demand (read+write) MSHR misses
system.cpu.dcache.demand_mshr_misses::total          170                       # number of demand (read+write) MSHR misses
system.cpu.dcache.overall_mshr_misses::.cpu.data          177                       # number of overall MSHR misses
system.cpu.dcache.overall_mshr_misses::total          177                       # number of overall MSHR misses
system.cpu.dcache.demand_mshr_miss_latency::.cpu.data     10191500                       # number of demand (read+write) MSHR miss cycles
system.cpu.dcache.demand_mshr_miss_latency::total     10191500                       # number of demand (read+write) MSHR miss cycles
system.cpu.dcache.overall_mshr_miss_latency::.cpu.data     10877000                       # number of overall MSHR miss cycles
system.cpu.dcache.overall_mshr_miss_latency::total     10877000                       # number of overall MSHR miss cycles
system.cpu.dcache.demand_mshr_miss_rate::.cpu.data     0.018521                       # mshr miss rate for demand accesses
system.cpu.dcache.demand_mshr_miss_rate::total     0.018521                       # mshr miss rate for demand accesses
system.cpu.dcache.overall_mshr_miss_rate::.cpu.data     0.019220                       # mshr miss rate for overall accesses
system.cpu.dcache.overall_mshr_miss_rate::total     0.019220                       # mshr miss rate for overall accesses
system.cpu.dcache.demand_avg_mshr_miss_latency::.cpu.data        59950                       # average overall mshr miss latency
system.cpu.dcache.demand_avg_mshr_miss_latency::total        59950                       # average overall mshr miss latency
system.cpu.dcache.overall_avg_mshr_miss_latency::.cpu.data 61451.977401                       # average overall mshr miss latency
system.cpu.dcache.overall_avg_mshr_miss_latency::total 61451.977401                       # average overall mshr miss latency
system.cpu.dcache.replacements                      1                       # number of replacements
system.cpu.dcache.ReadReq_hits::.cpu.data         4683                       # number of ReadReq hits
system.cpu.dcache.ReadReq_hits::total            4683                       # number of ReadReq hits
system.cpu.dcache.ReadReq_misses::.cpu.data          106                       # number of ReadReq misses
system.cpu.dcache.ReadReq_misses::total           106                       # number of ReadReq misses
system.cpu.dcache.ReadReq_miss_latency::.cpu.data      6912500                       # number of ReadReq miss cycles
system.cpu.dcache.ReadReq_miss_latency::total      6912500                       # number of ReadReq miss cycles
system.cpu.dcache.ReadReq_accesses::.cpu.data         4789                       # number of ReadReq accesses(hits+misses)
system.cpu.dcache.ReadReq_accesses::total         4789                       # number of ReadReq accesses(hits+misses)
system.cpu.dcache.ReadReq_miss_rate::.cpu.data     0.022134                       # miss rate for ReadReq accesses
system.cpu.dcache.ReadReq_miss_rate::total     0.022134                       # miss rate for ReadReq accesses
system.cpu.dcache.ReadReq_avg_miss_latency::.cpu.data 65212.264151                       # average ReadReq miss latency
system.cpu.dcache.ReadReq_avg_miss_latency::total 65212.264151                       # average ReadReq miss latency
system.cpu.dcache.ReadReq_mshr_hits::.cpu.data            5                       # number of ReadReq MSHR hits
system.cpu.dcache.ReadReq_mshr_hits::total            5                       # number of ReadReq MSHR hits
system.cpu.dcache.ReadReq_mshr_misses::.cpu.data          101                       # number of ReadReq MSHR misses
system.cpu.dcache.ReadReq_mshr_misses::total          101                       # number of ReadReq MSHR misses
system.cpu.dcache.ReadReq_mshr_miss_latency::.cpu.data      6022000                       # number of ReadReq MSHR miss cycles
system.cpu.dcache.ReadReq_mshr_miss_latency::total      6022000                       # number of ReadReq MSHR miss cycles
system.cpu.dcache.ReadReq_mshr_miss_rate::.cpu.data     0.021090                       # mshr miss rate for ReadReq accesses
system.cpu.dcache.ReadReq_mshr_miss_rate::total     0.021090                       # mshr miss rate for ReadReq accesses
system.cpu.dcache.ReadReq_avg_mshr_miss_latency::.cpu.data 59623.762376                       # average ReadReq mshr miss latency
system.cpu.dcache.ReadReq_avg_mshr_miss_latency::total 59623.762376                       # average ReadReq mshr miss latency
system.cpu.dcache.WriteReq_hits::.cpu.data         4274                       # number of WriteReq hits
system.cpu.dcache.WriteReq_hits::total           4274                       # number of WriteReq hits
system.cpu.dcache.WriteReq_misses::.cpu.data          116                       # number of WriteReq misses
system.cpu.dcache.WriteReq_misses::total          116                       # number of WriteReq misses
system.cpu.dcache.WriteReq_miss_latency::.cpu.data      7433000                       # number of WriteReq miss cycles
system.cpu.dcache.WriteReq_miss_latency::total      7433000                       # number of WriteReq miss cycles
system.cpu.dcache.WriteReq_accesses::.cpu.data         4390                       # number of WriteReq accesses(hits+misses)
system.cpu.dcache.WriteReq_accesses::total         4390                       # number of WriteReq accesses(hits+misses)
system.cpu.dcache.WriteReq_miss_rate::.cpu.data     0.026424                       # miss rate for WriteReq accesses
system.cpu.dcache.WriteReq_miss_rate::total     0.026424                       # miss rate for WriteReq accesses
system.cpu.dcache.WriteReq_avg_miss_latency::.cpu.data 64077.586207                       # average WriteReq miss latency
system.cpu.dcache.WriteReq_avg_miss_latency::total 64077.586207                       # average WriteReq miss latency
system.cpu.dcache.WriteReq_mshr_hits::.cpu.data           47                       # number of WriteReq MSHR hits
system.cpu.dcache.WriteReq_mshr_hits::total           47                       # number of WriteReq MSHR hits
system.cpu.dcache.WriteReq_mshr_misses::.cpu.data           69                       # number of WriteReq MSHR misses
system.cpu.dcache.WriteReq_mshr_misses::total           69                       # number of WriteReq MSHR misses
system.cpu.dcache.WriteReq_mshr_miss_latency::.cpu.data      4169500                       # number of WriteReq MSHR miss cycles
system.cpu.dcache.WriteReq_mshr_miss_latency::total      4169500                       # number of WriteReq MSHR miss cycles
system.cpu.dcache.WriteReq_mshr_miss_rate::.cpu.data     0.015718                       # mshr miss rate for WriteReq accesses
system.cpu.dcache.WriteReq_mshr_miss_rate::total     0.015718                       # mshr miss rate for WriteReq accesses
system.cpu.dcache.WriteReq_avg_mshr_miss_latency::.cpu.data 60427.536232                       # average WriteReq mshr miss latency
system.cpu.dcache.WriteReq_avg_mshr_miss_latency::total 60427.536232                       # average WriteReq mshr miss latency
system.cpu.dcache.SoftPFReq_hits::.cpu.data           22                       # number of SoftPFReq hits
system.cpu.dcache.SoftPFReq_hits::total            22                       # number of SoftPFReq hits
system.cpu.dcache.SoftPFReq_misses::.cpu.data            8                       # number of SoftPFReq misses
system.cpu.dcache.SoftPFReq_misses::total            8                       # number of SoftPFReq misses
system.cpu.dcache.SoftPFReq_accesses::.cpu.data           30                       # number of SoftPFReq accesses(hits+misses)
system.cpu.dcache.SoftPFReq_accesses::total           30                       # number of SoftPFReq accesses(hits+misses)
system.cpu.dcache.SoftPFReq_miss_rate::.cpu.data     0.266667                       # miss rate for SoftPFReq accesses
system.cpu.dcache.SoftPFReq_miss_rate::total     0.266667                       # miss rate for SoftPFReq accesses
system.cpu.dcache.SoftPFReq_mshr_misses::.cpu.data            7                       # number of SoftPFReq MSHR misses
system.cpu.dcache.SoftPFReq_mshr_misses::total            7                       # number of SoftPFReq MSHR misses
system.cpu.dcache.SoftPFReq_mshr_miss_latency::.cpu.data       685500                       # number of SoftPFReq MSHR miss cycles
system.cpu.dcache.SoftPFReq_mshr_miss_latency::total       685500                       # number of SoftPFReq MSHR miss cycles
system.cpu.dcache.SoftPFReq_mshr_miss_rate::.cpu.data     0.233333                       # mshr miss rate for SoftPFReq accesses
system.cpu.dcache.SoftPFReq_mshr_miss_rate::total     0.233333                       # mshr miss rate for SoftPFReq accesses
system.cpu.dcache.SoftPFReq_avg_mshr_miss_latency::.cpu.data 97928.571429                       # average SoftPFReq mshr miss latency
system.cpu.dcache.SoftPFReq_avg_mshr_miss_latency::total 97928.571429                       # average SoftPFReq mshr miss latency
system.cpu.dcache.LoadLockedReq_hits::.cpu.data           68                       # number of LoadLockedReq hits
system.cpu.dcache.LoadLockedReq_hits::total           68                       # number of LoadLockedReq hits
system.cpu.dcache.LoadLockedReq_accesses::.cpu.data           68                       # number of LoadLockedReq accesses(hits+misses)
system.cpu.dcache.LoadLockedReq_accesses::total           68                       # number of LoadLockedReq accesses(hits+misses)
system.cpu.dcache.StoreCondReq_hits::.cpu.data           68                       # number of StoreCondReq hits
system.cpu.dcache.StoreCondReq_hits::total           68                       # number of StoreCondReq hits
system.cpu.dcache.StoreCondReq_accesses::.cpu.data           68                       # number of StoreCondReq accesses(hits+misses)
system.cpu.dcache.StoreCondReq_accesses::total           68                       # number of StoreCondReq accesses(hits+misses)
system.cpu.dcache.power_state.pwrStateResidencyTicks::UNDEFINED    114730000                       # Cumulative time (in ticks) in various power states
system.cpu.dcache.tags.tagsinuse           128.445743                       # Cycle average of tags in use
system.cpu.dcache.tags.total_refs                9292                       # Total number of references to valid blocks.
system.cpu.dcache.tags.sampled_refs               177                       # Sample count of references to valid blocks.
system.cpu.dcache.tags.avg_refs             52.497175                       # Average number of references to valid blocks.
system.cpu.dcache.tags.warmup_cycle            166000                       # Cycle when the warmup percentage was hit.
system.cpu.dcache.tags.occ_blocks::.cpu.data   128.445743                       # Average occupied blocks per requestor
system.cpu.dcache.tags.occ_percent::.cpu.data     0.125435                       # Average percentage of cache occupancy
system.cpu.dcache.tags.occ_percent::total     0.125435                       # Average percentage of cache occupancy
system.cpu.dcache.tags.occ_task_id_blocks::1024          176                       # Occupied blocks per task id
system.cpu.dcache.tags.age_task_id_blocks_1024::0           15                       # Occupied blocks per task id
system.cpu.dcache.tags.age_task_id_blocks_1024::1          109                       # Occupied blocks per task id
system.cpu.dcache.tags.age_task_id_blocks_1024::2           52                       # Occupied blocks per task id
system.cpu.dcache.tags.occ_task_id_percent::1024     0.171875                       # Percentage of cache occupancy per task id
system.cpu.dcache.tags.tag_accesses             18867                       # Number of tag accesses
system.cpu.dcache.tags.data_accesses            18867                       # Number of data accesses
system.cpu.dcache.tags.power_state.pwrStateResidencyTicks::UNDEFINED    114730000                       # Cumulative time (in ticks) in various power states
system.cpu.dtb.instHits                             0                       # ITB inst hits
system.cpu.dtb.instMisses                           0                       # ITB inst misses
system.cpu.dtb.readHits                             0                       # DTB read hits
system.cpu.dtb.readMisses                           0                       # DTB read misses
system.cpu.dtb.writeHits                            0                       # DTB write hits
system.cpu.dtb.writeMisses                          0                       # DTB write misses
system.cpu.dtb.inserts                              0                       # Number of times an entry is inserted into the TLB
system.cpu.dtb.flushTlb                             0                       # Number of times complete TLB was flushed
system.cpu.dtb.flushTlbMva                          0                       # Number of times TLB was flushed by MVA
system.cpu.dtb.flushTlbMvaAsid                      0                       # Number of times TLB was flushed by MVA & ASID
system.cpu.dtb.flushTlbAsid                         0                       # Number of times TLB was flushed by ASID
system.cpu.dtb.flushedEntries                       0                       # Number of entries that have been flushed from TLB
system.cpu.dtb.alignFaults                          0                       # Number of TLB faults due to alignment restrictions
system.cpu.dtb.prefetchFaults                       0                       # Number of TLB faults due to prefetch
system.cpu.dtb.domainFaults                         0                       # Number of TLB faults due to domain restrictions
system.cpu.dtb.permsFaults                          0                       # Number of TLB faults due to permissions restrictions
system.cpu.dtb.readAccesses                         0                       # DTB read accesses
system.cpu.dtb.writeAccesses                        0                       # DTB write accesses
system.cpu.dtb.instAccesses                         0                       # ITB inst accesses
system.cpu.dtb.hits                                 0                       # Total TLB (inst and data) hits
system.cpu.dtb.misses                               0                       # Total TLB (inst and data) misses
system.cpu.dtb.accesses                             0                       # Total TLB (inst and data) accesses
system.cpu.dtb.stage2_mmu.stage2_tlb.instHits            0                       # ITB inst hits
system.cpu.dtb.stage2_mmu.stage2_tlb.instMisses            0                       # ITB inst misses
system.cpu.dtb.stage2_mmu.stage2_tlb.readHits            0                       # DTB read hits
system.cpu.dtb.stage2_mmu.stage2_tlb.readMisses            0                       # DTB read misses
system.cpu.dtb.stage2_mmu.stage2_tlb.writeHits            0                       # DTB write hits
system.cpu.dtb.stage2_mmu.stage2_tlb.writeMisses            0                       # DTB write misses
system.cpu.dtb.stage2_mmu.stage2_tlb.inserts            0                       # Number of times an entry is inserted into the TLB
system.cpu.dtb.stage2_mmu.stage2_tlb.flushTlb            0                       # Number of times complete TLB was flushed
system.cpu.dtb.stage2_mmu.stage2_tlb.flushTlbMva            0                       # Number of times TLB was flushed by MVA
system.cpu.dtb.stage2_mmu.stage2_tlb.flushTlbMvaAsid            0                       # Number of times TLB was flushed by MVA & ASID
system.cpu.dtb.stage2_mmu.stage2_tlb.flushTlbAsid            0                       # Number of times TLB was flushed by ASID
system.cpu.dtb.stage2_mmu.stage2_tlb.flushedEntries            0                       # Number of entries that have been flushed from TLB
system.cpu.dtb.stage2_mmu.stage2_tlb.alignFaults            0                       # Number of TLB faults due to alignment restrictions
system.cpu.dtb.stage2_mmu.stage2_tlb.prefetchFaults            0                       # Number of TLB faults due to prefetch
system.cpu.dtb.stage2_mmu.stage2_tlb.domainFaults            0                       # Number of TLB faults due to domain restrictions
system.cpu.dtb.stage2_mmu.stage2_tlb.permsFaults            0                       # Number of TLB faults due to permissions restrictions
system.cpu.dtb.stage2_mmu.stage2_tlb.readAccesses            0                       # DTB read accesses
system.cpu.dtb.stage2_mmu.stage2_tlb.writeAccesses            0                       # DTB write accesses
system.cpu.dtb.stage2_mmu.stage2_tlb.instAccesses            0                       # ITB inst accesses
system.cpu.dtb.stage2_mmu.stage2_tlb.hits            0                       # Total TLB (inst and data) hits
system.cpu.dtb.stage2_mmu.stage2_tlb.misses            0                       # Total TLB (inst and data) misses
system.cpu.dtb.stage2_mmu.stage2_tlb.accesses            0                       # Total TLB (inst and data) accesses
system.cpu.dtb.stage2_mmu.stage2_tlb.walker.walks            0                       # Table walker walks requested
system.cpu.dtb.stage2_mmu.stage2_tlb.walker.requestOrigin_Requested::Data            0                       # Table walker requests started/completed, data/inst
system.cpu.dtb.stage2_mmu.stage2_tlb.walker.requestOrigin_Requested::Inst            0                       # Table walker requests started/completed, data/inst
system.cpu.dtb.stage2_mmu.stage2_tlb.walker.requestOrigin_Requested::total            0                       # Table walker requests started/completed, data/inst
system.cpu.dtb.stage2_mmu.stage2_tlb.walker.requestOrigin_Completed::Data            0                       # Table walker requests started/completed, data/inst
system.cpu.dtb.stage2_mmu.stage2_tlb.walker.requestOrigin_Completed::Inst            0                       # Table walker requests started/completed, data/inst
system.cpu.dtb.stage2_mmu.stage2_tlb.walker.requestOrigin_Completed::total            0                       # Table walker requests started/completed, data/inst
system.cpu.dtb.stage2_mmu.stage2_tlb.walker.requestOrigin::total            0                       # Table walker requests started/completed, data/inst
system.cpu.dtb.stage2_mmu.stage2_tlb.walker.power_state.pwrStateResidencyTicks::UNDEFINED    114730000                       # Cumulative time (in ticks) in various power states
system.cpu.dtb.walker.walks                         0                       # Table walker walks requested
system.cpu.dtb.walker.requestOrigin_Requested::Data            0                       # Table walker requests started/completed, data/inst
system.cpu.dtb.walker.requestOrigin_Requested::Inst            0                       # Table walker requests started/completed, data/inst
system.cpu.dtb.walker.requestOrigin_Requested::total            0                       # Table walker requests started/completed, data/inst
system.cpu.dtb.walker.requestOrigin_Completed::Data            0                       # Table walker requests started/completed, data/inst
system.cpu.dtb.walker.requestOrigin_Completed::Inst            0                       # Table walker requests started/completed, data/inst
system.cpu.dtb.walker.requestOrigin_Completed::total            0                       # Table walker requests started/completed, data/inst
system.cpu.dtb.walker.requestOrigin::total            0                       # Table walker requests started/completed, data/inst
system.cpu.dtb.walker.power_state.pwrStateResidencyTicks::UNDEFINED    114730000                       # Cumulative time (in ticks) in various power states
system.cpu.fetch2.intInstructions               18563                       # Number of integer instructions successfully decoded
system.cpu.fetch2.fpInstructions                    0                       # Number of floating point instructions successfully decoded
system.cpu.fetch2.vecInstructions                   0                       # Number of SIMD instructions successfully decoded
system.cpu.fetch2.loadInstructions               4485                       # Number of memory load instructions successfully decoded
system.cpu.fetch2.storeInstructions              2662                       # Number of memory store instructions successfully decoded
system.cpu.fetch2.amoInstructions                   0                       # Number of memory atomic instructions successfully decoded
system.cpu.icache.demand_hits::.cpu.inst         8167                       # number of demand (read+write) hits
system.cpu.icache.demand_hits::total             8167                       # number of demand (read+write) hits
system.cpu.icache.overall_hits::.cpu.inst         8167                       # number of overall hits
system.cpu.icache.overall_hits::total            8167                       # number of overall hits
system.cpu.icache.demand_misses::.cpu.inst          518                       # number of demand (read+write) misses
system.cpu.icache.demand_misses::total            518                       # number of demand (read+write) misses
system.cpu.icache.overall_misses::.cpu.inst          518                       # number of overall misses
system.cpu.icache.overall_misses::total           518                       # number of overall misses
system.cpu.icache.demand_miss_latency::.cpu.inst     29542500                       # number of demand (read+write) miss cycles
system.cpu.icache.demand_miss_latency::total     29542500                       # number of demand (read+write) miss cycles
system.cpu.icache.overall_miss_latency::.cpu.inst     29542500                       # number of overall miss cycles
system.cpu.icache.overall_miss_latency::total     29542500                       # number of overall miss cycles
system.cpu.icache.demand_accesses::.cpu.inst         8685                       # number of demand (read+write) accesses
system.cpu.icache.demand_accesses::total         8685                       # number of demand (read+write) accesses
system.cpu.icache.overall_accesses::.cpu.inst         8685                       # number of overall (read+write) accesses
system.cpu.icache.overall_accesses::total         8685                       # number of overall (read+write) accesses
system.cpu.icache.demand_miss_rate::.cpu.inst     0.059643                       # miss rate for demand accesses
system.cpu.icache.demand_miss_rate::total     0.059643                       # miss rate for demand accesses
system.cpu.icache.overall_miss_rate::.cpu.inst     0.059643                       # miss rate for overall accesses
system.cpu.icache.overall_miss_rate::total     0.059643                       # miss rate for overall accesses
system.cpu.icache.demand_avg_miss_latency::.cpu.inst 57031.853282                       # average overall miss latency
system.cpu.icache.demand_avg_miss_latency::total 57031.853282                       # average overall miss latency
system.cpu.icache.overall_avg_miss_latency::.cpu.inst 57031.853282                       # average overall miss latency
system.cpu.icache.overall_avg_miss_latency::total 57031.853282                       # average overall miss latency
system.cpu.icache.blocked_cycles::no_mshrs            0                       # number of cycles access was blocked
system.cpu.icache.blocked_cycles::no_targets            0                       # number of cycles access was blocked
system.cpu.icache.blocked::no_mshrs                 0                       # number of cycles access was blocked
system.cpu.icache.blocked::no_targets               0                       # number of cycles access was blocked
system.cpu.icache.avg_blocked_cycles::no_mshrs          nan                       # average number of cycles each access was blocked
system.cpu.icache.avg_blocked_cycles::no_targets          nan                       # average number of cycles each access was blocked
system.cpu.icache.writebacks::.writebacks          213                       # number of writebacks
system.cpu.icache.writebacks::total               213                       # number of writebacks
system.cpu.icache.demand_mshr_misses::.cpu.inst          518                       # number of demand (read+write) MSHR misses
system.cpu.icache.demand_mshr_misses::total          518                       # number of demand (read+write) MSHR misses
system.cpu.icache.overall_mshr_misses::.cpu.inst          518                       # number of overall MSHR misses
system.cpu.icache.overall_mshr_misses::total          518                       # number of overall MSHR misses
system.cpu.icache.demand_mshr_miss_latency::.cpu.inst     26515000                       # number of demand (read+write) MSHR miss cycles
system.cpu.icache.demand_mshr_miss_latency::total     26515000                       # number of demand (read+write) MSHR miss cycles
system.cpu.icache.overall_mshr_miss_latency::.cpu.inst     26515000                       # number of overall MSHR miss cycles
system.cpu.icache.overall_mshr_miss_latency::total     26515000                       # number of overall MSHR miss cycles
system.cpu.icache.demand_mshr_miss_rate::.cpu.inst     0.059643                       # mshr miss rate for demand accesses
system.cpu.icache.demand_mshr_miss_rate::total     0.059643                       # mshr miss rate for demand accesses
system.cpu.icache.overall_mshr_miss_rate::.cpu.inst     0.059643                       # mshr miss rate for overall accesses
system.cpu.icache.overall_mshr_miss_rate::total     0.059643                       # mshr miss rate for overall accesses
system.cpu.icache.demand_avg_mshr_miss_latency::.cpu.inst 51187.258687                       # average overall mshr miss latency
system.cpu.icache.demand_avg_mshr_miss_latency::total 51187.258687                       # average overall mshr miss latency
system.cpu.icache.overall_avg_mshr_miss_latency::.cpu.inst 51187.258687                       # average overall mshr miss latency
system.cpu.icache.overall_avg_mshr_miss_latency::total 51187.258687                       # average overall mshr miss latency
system.cpu.icache.replacements                    213                       # number of replacements
system.cpu.icache.ReadReq_hits::.cpu.inst         8167                       # number of ReadReq hits
system.cpu.icache.ReadReq_hits::total            8167                       # number of ReadReq hits
system.cpu.icache.ReadReq_misses::.cpu.inst          518                       # number of ReadReq misses
system.cpu.icache.ReadReq_misses::total           518                       # number of ReadReq misses
system.cpu.icache.ReadReq_miss_latency::.cpu.inst     29542500                       # number of ReadReq miss cycles
system.cpu.icache.ReadReq_miss_latency::total     29542500                       # number of ReadReq miss cycles
system.cpu.icache.ReadReq_accesses::.cpu.inst         8685                       # number of ReadReq accesses(hits+misses)
system.cpu.icache.ReadReq_accesses::total         8685                       # number of ReadReq accesses(hits+misses)
system.cpu.icache.ReadReq_miss_rate::.cpu.inst     0.059643                       # miss rate for ReadReq accesses
system.cpu.icache.ReadReq_miss_rate::total     0.059643                       # miss rate for ReadReq accesses
system.cpu.icache.ReadReq_avg_miss_latency::.cpu.inst 57031.853282                       # average ReadReq miss latency
system.cpu.icache.ReadReq_avg_miss_latency::total 57031.853282                       # average ReadReq miss latency
system.cpu.icache.ReadReq_mshr_misses::.cpu.inst          518                       # number of ReadReq MSHR misses
system.cpu.icache.ReadReq_mshr_misses::total          518                       # number of ReadReq MSHR misses
system.cpu.icache.ReadReq_mshr_miss_latency::.cpu.inst     26515000                       # number of ReadReq MSHR miss cycles
system.cpu.icache.ReadReq_mshr_miss_latency::total     26515000                       # number of ReadReq MSHR miss cycles
system.cpu.icache.ReadReq_mshr_miss_rate::.cpu.inst     0.059643                       # mshr miss rate for ReadReq accesses
system.cpu.icache.ReadReq_mshr_miss_rate::total     0.059643                       # mshr miss rate for ReadReq accesses
system.cpu.icache.ReadReq_avg_mshr_miss_latency::.cpu.inst 51187.258687                       # average ReadReq mshr miss latency
system.cpu.icache.ReadReq_avg_mshr_miss_latency::total 51187.258687                       # average ReadReq mshr miss latency
system.cpu.icache.power_state.pwrStateResidencyTicks::UNDEFINED    114730000                       # Cumulative time (in ticks) in various power states
system.cpu.icache.tags.tagsinuse           224.762208                       # Cycle average of tags in use
system.cpu.icache.tags.total_refs                8685                       # Total number of references to valid blocks.
system.cpu.icache.tags.sampled_refs               518                       # Sample count of references to valid blocks.
system.cpu.icache.tags.avg_refs             16.766409                       # Average number of references to valid blocks.
system.cpu.icache.tags.warmup_cycle             77000                       # Cycle when the warmup percentage was hit.
system.cpu.icache.tags.occ_blocks::.cpu.inst   224.762208                       # Average occupied blocks per requestor
system.cpu.icache.tags.occ_percent::.cpu.inst     0.438989                       # Average percentage of cache occupancy
system.cpu.icache.tags.occ_percent::total     0.438989                       # Average percentage of cache occupancy
system.cpu.icache.tags.occ_task_id_blocks::1024          305                       # Occupied blocks per task id
system.cpu.icache.tags.age_task_id_blocks_1024::0           46                       # Occupied blocks per task id
system.cpu.icache.tags.age_task_id_blocks_1024::1          180                       # Occupied blocks per task id
system.cpu.icache.tags.age_task_id_blocks_1024::2           79                       # Occupied blocks per task id
system.cpu.icache.tags.occ_task_id_percent::1024     0.595703                       # Percentage of cache occupancy per task id
system.cpu.icache.tags.tag_accesses             17888                       # Number of tag accesses
system.cpu.icache.tags.data_accesses            17888                       # Number of data accesses
system.cpu.icache.tags.power_state.pwrStateResidencyTicks::UNDEFINED    114730000                       # Cumulative time (in ticks) in various power states
system.cpu.itb.instHits                             0                       # ITB inst hits
system.cpu.itb.instMisses                           0                       # ITB inst misses
system.cpu.itb.readHits                             0                       # DTB read hits
system.cpu.itb.readMisses                           0                       # DTB read misses
system.cpu.itb.writeHits                            0                       # DTB write hits
system.cpu.itb.writeMisses                          0                       # DTB write misses
system.cpu.itb.inserts                              0                       # Number of times an entry is inserted into the TLB
system.cpu.itb.flushTlb                             0                       # Number of times complete TLB was flushed
system.cpu.itb.flushTlbMva                          0                       # Number of times TLB was flushed by MVA
system.cpu.itb.flushTlbMvaAsid                      0                       # Number of times TLB was flushed by MVA & ASID
system.cpu.itb.flushTlbAsid                         0                       # Number of times TLB was flushed by ASID
system.cpu.itb.flushedEntries                       0                       # Number of entries that have been flushed from TLB
system.cpu.itb.alignFaults                          0                       # Number of TLB faults due to alignment restrictions
system.cpu.itb.prefetchFaults                       0                       # Number of TLB faults due to prefetch
system.cpu.itb.domainFaults                         0                       # Number of TLB faults due to domain restrictions
system.cpu.itb.permsFaults                          0                       # Number of TLB faults due to permissions restrictions
system.cpu.itb.readAccesses                         0                       # DTB read accesses
system.cpu.itb.writeAccesses                        0                       # DTB write accesses
system.cpu.itb.instAccesses                         0                       # ITB inst accesses
system.cpu.itb.hits                                 0                       # Total TLB (inst and data) hits
system.cpu.itb.misses                               0                       # Total TLB (inst and data) misses
system.cpu.itb.accesses                             0                       # Total TLB (inst and data) accesses
system.cpu.itb.stage2_mmu.stage2_tlb.instHits            0                       # ITB inst hits
system.cpu.itb.stage2_mmu.stage2_tlb.instMisses            0                       # ITB inst misses
system.cpu.itb.stage2_mmu.stage2_tlb.readHits            0                       # DTB read hits
system.cpu.itb.stage2_mmu.stage2_tlb.readMisses            0                       # DTB read misses
system.cpu.itb.stage2_mmu.stage2_tlb.writeHits            0                       # DTB write hits
system.cpu.itb.stage2_mmu.stage2_tlb.writeMisses            0                       # DTB write misses
system.cpu.itb.stage2_mmu.stage2_tlb.inserts            0                       # Number of times an entry is inserted into the TLB
system.cpu.itb.stage2_mmu.stage2_tlb.flushTlb            0                       # Number of times complete TLB was flushed
system.cpu.itb.stage2_mmu.stage2_tlb.flushTlbMva            0                       # Number of times TLB was flushed by MVA
system.cpu.itb.stage2_mmu.stage2_tlb.flushTlbMvaAsid            0                       # Number of times TLB was flushed by MVA & ASID
system.cpu.itb.stage2_mmu.stage2_tlb.flushTlbAsid            0                       # Number of times TLB was flushed by ASID
system.cpu.itb.stage2_mmu.stage2_tlb.flushedEntries            0                       # Number of entries that have been flushed from TLB
system.cpu.itb.stage2_mmu.stage2_tlb.alignFaults            0                       # Number of TLB faults due to alignment restrictions
system.cpu.itb.stage2_mmu.stage2_tlb.prefetchFaults            0                       # Number of TLB faults due to prefetch
system.cpu.itb.stage2_mmu.stage2_tlb.domainFaults            0                       # Number of TLB faults due to domain restrictions
system.cpu.itb.stage2_mmu.stage2_tlb.permsFaults            0                       # Number of TLB faults due to permissions restrictions
system.cpu.itb.stage2_mmu.stage2_tlb.readAccesses            0                       # DTB read accesses
system.cpu.itb.stage2_mmu.stage2_tlb.writeAccesses            0                       # DTB write accesses
system.cpu.itb.stage2_mmu.stage2_tlb.instAccesses            0                       # ITB inst accesses
system.cpu.itb.stage2_mmu.stage2_tlb.hits            0                       # Total TLB (inst and data) hits
system.cpu.itb.stage2_mmu.stage2_tlb.misses            0                       # Total TLB (inst and data) misses
system.cpu.itb.stage2_mmu.stage2_tlb.accesses            0                       # Total TLB (inst and data) accesses
system.cpu.itb.stage2_mmu.stage2_tlb.walker.walks            0                       # Table walker walks requested
system.cpu.itb.stage2_mmu.stage2_tlb.walker.requestOrigin_Requested::Data            0                       # Table walker requests started/completed, data/inst
system.cpu.itb.stage2_mmu.stage2_tlb.walker.requestOrigin_Requested::Inst            0                       # Table walker requests started/completed, data/inst
system.cpu.itb.stage2_mmu.stage2_tlb.walker.requestOrigin_Requested::total            0                       # Table walker requests started/completed, data/inst
system.cpu.itb.stage2_mmu.stage2_tlb.walker.requestOrigin_Completed::Data            0                       # Table walker requests started/completed, data/inst
system.cpu.itb.stage2_mmu.stage2_tlb.walker.requestOrigin_Completed::Inst            0                       # Table walker requests started/completed, data/inst
system.cpu.itb.stage2_mmu.stage2_tlb.walker.requestOrigin_Completed::total            0                       # Table walker requests started/completed, data/inst
system.cpu.itb.stage2_mmu.stage2_tlb.walker.requestOrigin::total            0                       # Table walker requests started/completed, data/inst
system.cpu.itb.stage2_mmu.stage2_tlb.walker.power_state.pwrStateResidencyTicks::UNDEFINED    114730000                       # Cumulative time (in ticks) in various power states
system.cpu.itb.walker.walks                         0                       # Table walker walks requested
system.cpu.itb.walker.requestOrigin_Requested::Data            0                       # Table walker requests started/completed, data/inst
system.cpu.itb.walker.requestOrigin_Requested::Inst            0                       # Table walker requests started/completed, data/inst
system.cpu.itb.walker.requestOrigin_Requested::total            0                       # Table walker requests started/completed, data/inst
system.cpu.itb.walker.requestOrigin_Completed::Data            0                       # Table walker requests started/completed, data/inst
system.cpu.itb.walker.requestOrigin_Completed::Inst            0                       # Table walker requests started/completed, data/inst
system.cpu.itb.walker.requestOrigin_Completed::total            0                       # Table walker requests started/completed, data/inst
system.cpu.itb.walker.requestOrigin::total            0                       # Table walker requests started/completed, data/inst
system.cpu.itb.walker.power_state.pwrStateResidencyTicks::UNDEFINED    114730000                       # Cumulative time (in ticks) in various power states
system.cpu.power_state.pwrStateResidencyTicks::ON    114730000                       # Cumulative time (in ticks) in various power states
system.cpu.thread_0.numInsts                    23914                       # Number of Instructions committed
system.cpu.thread_0.numOps                      28317                       # Number of Ops committed
system.cpu.thread_0.numMemRefs                      0                       # Number of Memory References
system.cpu_clk_domain.clock                      2500                       # Clock period in ticks
system.cpu_voltage_domain.voltage                   1                       # Voltage in Volts
system.mem_ctrls.avgPriority_.writebacks::samples        85.00                       # Average QoS priority value for accepted requests
system.mem_ctrls.avgPriority_.cpu.inst::samples       381.00                       # Average QoS priority value for accepted requests
system.mem_ctrls.avgPriority_.cpu.data::samples       175.00                       # Average QoS priority value for accepted requests
system.mem_ctrls.priorityMinLatency      0.000000018750                       # per QoS priority minimum request to response latency (s)
system.mem_ctrls.priorityMaxLatency      0.000138511250                       # per QoS priority maximum request to response latency (s)
system.mem_ctrls.numReadWriteTurnArounds            4                       # Number of turnarounds from READ to WRITE
system.mem_ctrls.numWriteReadTurnArounds            4                       # Number of turnarounds from WRITE to READ
system.mem_ctrls.numStayReadState                1340                       # Number of times bus staying in READ state
system.mem_ctrls.numStayWriteState                 62                       # Number of times bus staying in WRITE state
system.mem_ctrls.readReqs                         695                       # Number of read requests accepted
system.mem_ctrls.writeReqs                        207                       # Number of write requests accepted
system.mem_ctrls.readBursts                       695                       # Number of controller read bursts, including those serviced by the write queue
system.mem_ctrls.writeBursts                      207                       # Number of controller write bursts, including those merged in the write queue
system.mem_ctrls.servicedByWrQ                    139                       # Number of controller read bursts serviced by the write queue
system.mem_ctrls.mergedWrBursts                   122                       # Number of controller write bursts merged with an existing one
system.mem_ctrls.neitherReadNorWriteReqs            0                       # Number of requests that are neither read nor write
system.mem_ctrls.avgRdQLen                       1.04                       # Average read queue length when enqueuing
system.mem_ctrls.avgWrQLen                      14.26                       # Average write queue length when enqueuing
system.mem_ctrls.numRdRetry                         0                       # Number of times read queue was full causing retry
system.mem_ctrls.numWrRetry                         0                       # Number of times write queue was full causing retry
system.mem_ctrls.readPktSize::0                     0                       # Read request sizes (log2)
system.mem_ctrls.readPktSize::1                     0                       # Read request sizes (log2)
system.mem_ctrls.readPktSize::2                     0                       # Read request sizes (log2)
system.mem_ctrls.readPktSize::3                     0                       # Read request sizes (log2)
system.mem_ctrls.readPktSize::4                     0                       # Read request sizes (log2)
system.mem_ctrls.readPktSize::5                     0                       # Read request sizes (log2)
system.mem_ctrls.readPktSize::6                   695                       # Read request sizes (log2)
system.mem_ctrls.writePktSize::0                    0                       # Write request sizes (log2)
system.mem_ctrls.writePktSize::1                    0                       # Write request sizes (log2)
system.mem_ctrls.writePktSize::2                    0                       # Write request sizes (log2)
system.mem_ctrls.writePktSize::3                    0                       # Write request sizes (log2)
system.mem_ctrls.writePktSize::4                    0                       # Write request sizes (log2)
system.mem_ctrls.writePktSize::5                    0                       # Write request sizes (log2)
system.mem_ctrls.writePktSize::6                  207                       # Write request sizes (log2)
system.mem_ctrls.rdQLenPdf::0                     497                       # What read queue length does an incoming req see
system.mem_ctrls.rdQLenPdf::1                      58                       # What read queue length does an incoming req see
system.mem_ctrls.rdQLenPdf::2                       1                       # What read queue length does an incoming req see
system.mem_ctrls.rdQLenPdf::3                       0                       # What read queue length does an incoming req see
system.mem_ctrls.rdQLenPdf::4                       0                       # What read queue length does an incoming req see
system.mem_ctrls.rdQLenPdf::5                       0                       # What read queue length does an incoming req see
system.mem_ctrls.rdQLenPdf::6                       0                       # What read queue length does an incoming req see
system.mem_ctrls.rdQLenPdf::7                       0                       # What read queue length does an incoming req see
system.mem_ctrls.rdQLenPdf::8                       0                       # What read queue length does an incoming req see
system.mem_ctrls.rdQLenPdf::9                       0                       # What read queue length does an incoming req see
system.mem_ctrls.rdQLenPdf::10                      0                       # What read queue length does an incoming req see
system.mem_ctrls.rdQLenPdf::11                      0                       # What read queue length does an incoming req see
system.mem_ctrls.rdQLenPdf::12                      0                       # What read queue length does an incoming req see
system.mem_ctrls.rdQLenPdf::13                      0                       # What read queue length does an incoming req see
system.mem_ctrls.rdQLenPdf::14                      0                       # What read queue length does an incoming req see
system.mem_ctrls.rdQLenPdf::15                      0                       # What read queue length does an incoming req see
system.mem_ctrls.rdQLenPdf::16                      0                       # What read queue length does an incoming req see
system.mem_ctrls.rdQLenPdf::17                      0                       # What read queue length does an incoming req see
system.mem_ctrls.rdQLenPdf::18                      0                       # What read queue length does an incoming req see
system.mem_ctrls.rdQLenPdf::19                      0                       # What read queue length does an incoming req see
system.mem_ctrls.rdQLenPdf::20                      0                       # What read queue length does an incoming req see
system.mem_ctrls.rdQLenPdf::21                      0                       # What read queue length does an incoming req see
system.mem_ctrls.rdQLenPdf::22                      0                       # What read queue length does an incoming req see
system.mem_ctrls.rdQLenPdf::23                      0                       # What read queue length does an incoming req see
system.mem_ctrls.rdQLenPdf::24                      0                       # What read queue length does an incoming req see
system.mem_ctrls.rdQLenPdf::25                      0                       # What read queue length does an incoming req see
system.mem_ctrls.rdQLenPdf::26                      0                       # What read queue length does an incoming req see
system.mem_ctrls.rdQLenPdf::27                      0                       # What read queue length does an incoming req see
system.mem_ctrls.rdQLenPdf::28                      0                       # What read queue length does an incoming req see
system.mem_ctrls.rdQLenPdf::29                      0                       # What read queue length does an incoming req see
system.mem_ctrls.rdQLenPdf::30                      0                       # What read queue length does an incoming req see
system.mem_ctrls.rdQLenPdf::31                      0                       # What read queue length does an incoming req see
system.mem_ctrls.wrQLenPdf::0                       1                       # What write queue length does an incoming req see
system.mem_ctrls.wrQLenPdf::1                       1                       # What write queue length does an incoming req see
system.mem_ctrls.wrQLenPdf::2                       1                       # What write queue length does an incoming req see
system.mem_ctrls.wrQLenPdf::3                       1                       # What write queue length does an incoming req see
system.mem_ctrls.wrQLenPdf::4                       1                       # What write queue length does an incoming req see
system.mem_ctrls.wrQLenPdf::5                       1                       # What write queue length does an incoming req see
system.mem_ctrls.wrQLenPdf::6                       1                       # What write queue length does an incoming req see
system.mem_ctrls.wrQLenPdf::7                       1                       # What write queue length does an incoming req see
system.mem_ctrls.wrQLenPdf::8                       1                       # What write queue length does an incoming req see
system.mem_ctrls.wrQLenPdf::9                       1                       # What write queue length does an incoming req see
system.mem_ctrls.wrQLenPdf::10                      1                       # What write queue length does an incoming req see
system.mem_ctrls.wrQLenPdf::11                      1                       # What write queue length does an incoming req see
system.mem_ctrls.wrQLenPdf::12                      1                       # What write queue length does an incoming req see
system.mem_ctrls.wrQLenPdf::13                      1                       # What write queue length does an incoming req see
system.mem_ctrls.wrQLenPdf::14                      1                       # What write queue length does an incoming req see
system.mem_ctrls.wrQLenPdf::15                      2                       # What write queue length does an incoming req see
system.mem_ctrls.wrQLenPdf::16                      2                       # What write queue length does an incoming req see
system.mem_ctrls.wrQLenPdf::17                      5                       # What write queue length does an incoming req see
system.mem_ctrls.wrQLenPdf::18                      5                       # What write queue length does an incoming req see
system.mem_ctrls.wrQLenPdf::19                      4                       # What write queue length does an incoming req see
system.mem_ctrls.wrQLenPdf::20                      4                       # What write queue length does an incoming req see
system.mem_ctrls.wrQLenPdf::21                      4                       # What write queue length does an incoming req see
system.mem_ctrls.wrQLenPdf::22                      4                       # What write queue length does an incoming req see
system.mem_ctrls.wrQLenPdf::23                      4                       # What write queue length does an incoming req see
system.mem_ctrls.wrQLenPdf::24                      4                       # What write queue length does an incoming req see
system.mem_ctrls.wrQLenPdf::25                      4                       # What write queue length does an incoming req see
system.mem_ctrls.wrQLenPdf::26                      4                       # What write queue length does an incoming req see
system.mem_ctrls.wrQLenPdf::27                      4                       # What write queue length does an incoming req see
system.mem_ctrls.wrQLenPdf::28                      4                       # What write queue length does an incoming req see
system.mem_ctrls.wrQLenPdf::29                      4                       # What write queue length does an incoming req see
system.mem_ctrls.wrQLenPdf::30                      4                       # What write queue length does an incoming req see
system.mem_ctrls.wrQLenPdf::31                      4                       # What write queue length does an incoming req see
system.mem_ctrls.wrQLenPdf::32                      4                       # What write queue length does an incoming req see
system.mem_ctrls.wrQLenPdf::33                      0                       # What write queue length does an incoming req see
system.mem_ctrls.wrQLenPdf::34                      0                       # What write queue length does an incoming req see
system.mem_ctrls.wrQLenPdf::35                      0                       # What write queue length does an incoming req see
system.mem_ctrls.wrQLenPdf::36                      0                       # What write queue length does an incoming req see
system.mem_ctrls.wrQLenPdf::37                      0                       # What write queue length does an incoming req see
system.mem_ctrls.wrQLenPdf::38                      0                       # What write queue length does an incoming req see
system.mem_ctrls.wrQLenPdf::39                      0                       # What write queue length does an incoming req see
system.mem_ctrls.wrQLenPdf::40                      0                       # What write queue length does an incoming req see
system.mem_ctrls.wrQLenPdf::41                      0                       # What write queue length does an incoming req see
system.mem_ctrls.wrQLenPdf::42                      0                       # What write queue length does an incoming req see
system.mem_ctrls.wrQLenPdf::43                      0                       # What write queue length does an incoming req see
system.mem_ctrls.wrQLenPdf::44                      0                       # What write queue length does an incoming req see
system.mem_ctrls.wrQLenPdf::45                      0                       # What write queue length does an incoming req see
system.mem_ctrls.wrQLenPdf::46                      0                       # What write queue length does an incoming req see
system.mem_ctrls.wrQLenPdf::47                      0                       # What write queue length does an incoming req see
system.mem_ctrls.wrQLenPdf::48                      0                       # What write queue length does an incoming req see
system.mem_ctrls.wrQLenPdf::49                      0                       # What write queue length does an incoming req see
system.mem_ctrls.wrQLenPdf::50                      0                       # What write queue length does an incoming req see
system.mem_ctrls.wrQLenPdf::51                      0                       # What write queue length does an incoming req see
system.mem_ctrls.wrQLenPdf::52                      0                       # What write queue length does an incoming req see
system.mem_ctrls.wrQLenPdf::53                      0                       # What write queue length does an incoming req see
system.mem_ctrls.wrQLenPdf::54                      0                       # What write queue length does an incoming req see
system.mem_ctrls.wrQLenPdf::55                      0                       # What write queue length does an incoming req see
system.mem_ctrls.wrQLenPdf::56                      0                       # What write queue length does an incoming req see
system.mem_ctrls.wrQLenPdf::57                      0                       # What write queue length does an incoming req see
system.mem_ctrls.wrQLenPdf::58                      0                       # What write queue length does an incoming req see
system.mem_ctrls.wrQLenPdf::59                      0                       # What write queue length does an incoming req see
system.mem_ctrls.wrQLenPdf::60                      0                       # What write queue length does an incoming req see
system.mem_ctrls.wrQLenPdf::61                      0                       # What write queue length does an incoming req see
system.mem_ctrls.wrQLenPdf::62                      0                       # What write queue length does an incoming req see
system.mem_ctrls.wrQLenPdf::63                      0                       # What write queue length does an incoming req see
system.mem_ctrls.rdPerTurnAround::samples            4                       # Reads before turning the bus around for writes
system.mem_ctrls.rdPerTurnAround::mean     137.250000                       # Reads before turning the bus around for writes
system.mem_ctrls.rdPerTurnAround::gmean     84.295682                       # Reads before turning the bus around for writes
system.mem_ctrls.rdPerTurnAround::stdev    170.982212                       # Reads before turning the bus around for writes
system.mem_ctrls.rdPerTurnAround::32-47             1     25.00%     25.00% # Reads before turning the bus around for writes
system.mem_ctrls.rdPerTurnAround::48-63             1     25.00%     50.00% # Reads before turning the bus around for writes
system.mem_ctrls.rdPerTurnAround::64-79             1     25.00%     75.00% # Reads before turning the bus around for writes
system.mem_ctrls.rdPerTurnAround::384-399            1     25.00%    100.00% # Reads before turning the bus around for writes
system.mem_ctrls.rdPerTurnAround::total             4                       # Reads before turning the bus around for writes
system.mem_ctrls.wrPerTurnAround::samples            4                       # Writes before turning the bus around for reads
system.mem_ctrls.wrPerTurnAround::mean      16.500000                       # Writes before turning the bus around for reads
system.mem_ctrls.wrPerTurnAround::gmean     16.478137                       # Writes before turning the bus around for reads
system.mem_ctrls.wrPerTurnAround::stdev             1                       # Writes before turning the bus around for reads
system.mem_ctrls.wrPerTurnAround::16                3     75.00%     75.00% # Writes before turning the bus around for reads
system.mem_ctrls.wrPerTurnAround::18                1     25.00%    100.00% # Writes before turning the bus around for reads
system.mem_ctrls.wrPerTurnAround::total             4                       # Writes before turning the bus around for reads
system.mem_ctrls.bytesReadWrQ                    8896                       # Total number of bytes read from write queue
system.mem_ctrls.bytesReadSys                   44480                       # Total read bytes from the system interface side
system.mem_ctrls.bytesWrittenSys                13248                       # Total written bytes from the system interface side
system.mem_ctrls.avgRdBWSys                    387.69                       # Average system read bandwidth in MiByte/s
system.mem_ctrls.avgWrBWSys                    115.47                       # Average system write bandwidth in MiByte/s
system.mem_ctrls.totGap                     114632500                       # Total gap between requests
system.mem_ctrls.avgGap                     127087.03                       # Average gap between requests
system.mem_ctrls.requestorReadBytes::.cpu.inst        24384                       # Per-requestor bytes read from memory
system.mem_ctrls.requestorReadBytes::.cpu.data        11200                       # Per-requestor bytes read from memory
system.mem_ctrls.requestorWriteBytes::.writebacks         4224                       # Per-requestor bytes write to memory
system.mem_ctrls.requestorReadRate::.cpu.inst 212533774.949882328510                       # Per-requestor bytes read from memory rate (Bytes/sec)
system.mem_ctrls.requestorReadRate::.cpu.data 97620500.305064067245                       # Per-requestor bytes read from memory rate (Bytes/sec)
system.mem_ctrls.requestorWriteRate::.writebacks 36816874.400767020881                       # Per-requestor bytes write to memory rate (Bytes/sec)
system.mem_ctrls.requestorReadAccesses::.cpu.inst          518                       # Per-requestor read serviced memory accesses
system.mem_ctrls.requestorReadAccesses::.cpu.data          177                       # Per-requestor read serviced memory accesses
system.mem_ctrls.requestorWriteAccesses::.writebacks          207                       # Per-requestor write serviced memory accesses
system.mem_ctrls.requestorReadTotalLat::.cpu.inst      9459000                       # Per-requestor read total memory access latency
system.mem_ctrls.requestorReadTotalLat::.cpu.data      4512000                       # Per-requestor read total memory access latency
system.mem_ctrls.requestorWriteTotalLat::.writebacks   1074616250                       # Per-requestor write total memory access latency
system.mem_ctrls.requestorReadAvgLat::.cpu.inst     18260.62                       # Per-requestor read average memory access latency
system.mem_ctrls.requestorReadAvgLat::.cpu.data     25491.53                       # Per-requestor read average memory access latency
system.mem_ctrls.requestorWriteAvgLat::.writebacks   5191382.85                       # Per-requestor write average memory access latency
system.mem_ctrls.dram.bytes_read::.cpu.inst        33152                       # Number of bytes read from this memory
system.mem_ctrls.dram.bytes_read::.cpu.data        11328                       # Number of bytes read from this memory
system.mem_ctrls.dram.bytes_read::total         44480                       # Number of bytes read from this memory
system.mem_ctrls.dram.bytes_inst_read::.cpu.inst        33152                       # Number of instructions bytes read from this memory
system.mem_ctrls.dram.bytes_inst_read::total        33152                       # Number of instructions bytes read from this memory
system.mem_ctrls.dram.num_reads::.cpu.inst          518                       # Number of read requests responded to by this memory
system.mem_ctrls.dram.num_reads::.cpu.data          177                       # Number of read requests responded to by this memory
system.mem_ctrls.dram.num_reads::total            695                       # Number of read requests responded to by this memory
system.mem_ctrls.dram.bw_read::.cpu.inst    288956681                       # Total read bandwidth from this memory (bytes/s)
system.mem_ctrls.dram.bw_read::.cpu.data     98736163                       # Total read bandwidth from this memory (bytes/s)
system.mem_ctrls.dram.bw_read::total        387692844                       # Total read bandwidth from this memory (bytes/s)
system.mem_ctrls.dram.bw_inst_read::.cpu.inst    288956681                       # Instruction read bandwidth from this memory (bytes/s)
system.mem_ctrls.dram.bw_inst_read::total    288956681                       # Instruction read bandwidth from this memory (bytes/s)
system.mem_ctrls.dram.bw_total::.cpu.inst    288956681                       # Total bandwidth to/from this memory (bytes/s)
system.mem_ctrls.dram.bw_total::.cpu.data     98736163                       # Total bandwidth to/from this memory (bytes/s)
system.mem_ctrls.dram.bw_total::total       387692844                       # Total bandwidth to/from this memory (bytes/s)
system.mem_ctrls.dram.readBursts                  556                       # Number of DRAM read bursts
system.mem_ctrls.dram.writeBursts                  66                       # Number of DRAM write bursts
system.mem_ctrls.dram.perBankRdBursts::0           52                       # Per bank write bursts
system.mem_ctrls.dram.perBankRdBursts::1            2                       # Per bank write bursts
system.mem_ctrls.dram.perBankRdBursts::2           23                       # Per bank write bursts
system.mem_ctrls.dram.perBankRdBursts::3           29                       # Per bank write bursts
system.mem_ctrls.dram.perBankRdBursts::4           13                       # Per bank write bursts
system.mem_ctrls.dram.perBankRdBursts::5           36                       # Per bank write bursts
system.mem_ctrls.dram.perBankRdBursts::6           43                       # Per bank write bursts
system.mem_ctrls.dram.perBankRdBursts::7           52                       # Per bank write bursts
system.mem_ctrls.dram.perBankRdBursts::8          115                       # Per bank write bursts
system.mem_ctrls.dram.perBankRdBursts::9           70                       # Per bank write bursts
system.mem_ctrls.dram.perBankRdBursts::10           28                       # Per bank write bursts
system.mem_ctrls.dram.perBankRdBursts::11           69                       # Per bank write bursts
system.mem_ctrls.dram.perBankRdBursts::12           11                       # Per bank write bursts
system.mem_ctrls.dram.perBankRdBursts::13            7                       # Per bank write bursts
system.mem_ctrls.dram.perBankRdBursts::14            6                       # Per bank write bursts
system.mem_ctrls.dram.perBankRdBursts::15            0                       # Per bank write bursts
system.mem_ctrls.dram.perBankWrBursts::0           16                       # Per bank write bursts
system.mem_ctrls.dram.perBankWrBursts::1            2                       # Per bank write bursts
system.mem_ctrls.dram.perBankWrBursts::2            2                       # Per bank write bursts
system.mem_ctrls.dram.perBankWrBursts::3            0                       # Per bank write bursts
system.mem_ctrls.dram.perBankWrBursts::4            0                       # Per bank write bursts
system.mem_ctrls.dram.perBankWrBursts::5            2                       # Per bank write bursts
system.mem_ctrls.dram.perBankWrBursts::6            5                       # Per bank write bursts
system.mem_ctrls.dram.perBankWrBursts::7           11                       # Per bank write bursts
system.mem_ctrls.dram.perBankWrBursts::8           15                       # Per bank write bursts
system.mem_ctrls.dram.perBankWrBursts::9            6                       # Per bank write bursts
system.mem_ctrls.dram.perBankWrBursts::10            0                       # Per bank write bursts
system.mem_ctrls.dram.perBankWrBursts::11            7                       # Per bank write bursts
system.mem_ctrls.dram.perBankWrBursts::12            0                       # Per bank write bursts
system.mem_ctrls.dram.perBankWrBursts::13            0                       # Per bank write bursts
system.mem_ctrls.dram.perBankWrBursts::14            0                       # Per bank write bursts
system.mem_ctrls.dram.perBankWrBursts::15            0                       # Per bank write bursts
system.mem_ctrls.dram.totQLat                 3546000                       # Total ticks spent queuing
system.mem_ctrls.dram.totBusLat               2780000                       # Total ticks spent in databus transfers
system.mem_ctrls.dram.totMemAccLat           13971000                       # Total ticks spent from burst creation until serviced by the DRAM
system.mem_ctrls.dram.avgQLat                 6377.70                       # Average queueing delay per DRAM burst
system.mem_ctrls.dram.avgBusLat               5000.00                       # Average bus latency per DRAM burst
system.mem_ctrls.dram.avgMemAccLat           25127.70                       # Average memory access latency per DRAM burst
system.mem_ctrls.dram.readRowHits                 442                       # Number of row buffer hits during reads
system.mem_ctrls.dram.writeRowHits                 54                       # Number of row buffer hits during writes
system.mem_ctrls.dram.readRowHitRate            79.50                       # Row buffer hit rate for reads
system.mem_ctrls.dram.writeRowHitRate           81.82                       # Row buffer hit rate for writes
system.mem_ctrls.dram.bytesPerActivate::samples          115                       # Bytes accessed per row activation
system.mem_ctrls.dram.bytesPerActivate::mean   326.678261                       # Bytes accessed per row activation
system.mem_ctrls.dram.bytesPerActivate::gmean   219.737552                       # Bytes accessed per row activation
system.mem_ctrls.dram.bytesPerActivate::stdev   298.791823                       # Bytes accessed per row activation
system.mem_ctrls.dram.bytesPerActivate::0-127           25     21.74%     21.74% # Bytes accessed per row activation
system.mem_ctrls.dram.bytesPerActivate::128-255           35     30.43%     52.17% # Bytes accessed per row activation
system.mem_ctrls.dram.bytesPerActivate::256-383           21     18.26%     70.43% # Bytes accessed per row activation
system.mem_ctrls.dram.bytesPerActivate::384-511            8      6.96%     77.39% # Bytes accessed per row activation
system.mem_ctrls.dram.bytesPerActivate::512-639            3      2.61%     80.00% # Bytes accessed per row activation
system.mem_ctrls.dram.bytesPerActivate::640-767            9      7.83%     87.83% # Bytes accessed per row activation
system.mem_ctrls.dram.bytesPerActivate::768-895            2      1.74%     89.57% # Bytes accessed per row activation
system.mem_ctrls.dram.bytesPerActivate::896-1023            1      0.87%     90.43% # Bytes accessed per row activation
system.mem_ctrls.dram.bytesPerActivate::1024-1151           11      9.57%    100.00% # Bytes accessed per row activation
system.mem_ctrls.dram.bytesPerActivate::total          115                       # Bytes accessed per row activation
system.mem_ctrls.dram.bytesRead                 35584                       # Total number of bytes read from DRAM
system.mem_ctrls.dram.bytesWritten               4224                       # Total number of bytes written to DRAM
system.mem_ctrls.dram.avgRdBW              310.154275                       # Average DRAM read bandwidth in MiBytes/s
system.mem_ctrls.dram.avgWrBW               36.816874                       # Average DRAM write bandwidth in MiBytes/s
system.mem_ctrls.dram.peakBW                 12800.00                       # Theoretical peak bandwidth in MiByte/s
system.mem_ctrls.dram.busUtil                    2.71                       # Data bus utilization in percentage
system.mem_ctrls.dram.busUtilRead                2.42                       # Data bus utilization in percentage for reads
system.mem_ctrls.dram.busUtilWrite               0.29                       # Data bus utilization in percentage for writes
system.mem_ctrls.dram.pageHitRate               79.74                       # Row buffer hit rate, read and write combined
system.mem_ctrls.dram.power_state.pwrStateResidencyTicks::UNDEFINED    114730000                       # Cumulative time (in ticks) in various power states
system.mem_ctrls.dram.rank0.actEnergy          378420                       # Energy for activate commands per rank (pJ)
system.mem_ctrls.dram.rank0.preEnergy          182160                       # Energy for precharge commands per rank (pJ)
system.mem_ctrls.dram.rank0.readEnergy        1785000                       # Energy for read commands per rank (pJ)
system.mem_ctrls.dram.rank0.writeEnergy        198360                       # Energy for write commands per rank (pJ)
system.mem_ctrls.dram.rank0.refreshEnergy 8604960.000000                       # Energy for refresh commands per rank (pJ)
system.mem_ctrls.dram.rank0.actBackEnergy     26282130                       # Energy for active background per rank (pJ)
system.mem_ctrls.dram.rank0.preBackEnergy     21924000                       # Energy for precharge background per rank (pJ)
system.mem_ctrls.dram.rank0.actPowerDownEnergy            0                       # Energy for active power-down per rank (pJ)
system.mem_ctrls.dram.rank0.prePowerDownEnergy            0                       # Energy for precharge power-down per rank (pJ)
system.mem_ctrls.dram.rank0.selfRefreshEnergy            0                       # Energy for self refresh per rank (pJ)
system.mem_ctrls.dram.rank0.totalEnergy      59355030                       # Total energy per rank (pJ)
system.mem_ctrls.dram.rank0.averagePower   517.345333                       # Core power per rank (mW)
system.mem_ctrls.dram.rank0.totalIdleTime            0                       # Total Idle time Per DRAM Rank
system.mem_ctrls.dram.rank0.pwrStateTime::IDLE     56777500                       # Time in different power states
system.mem_ctrls.dram.rank0.pwrStateTime::REF      3640000                       # Time in different power states
system.mem_ctrls.dram.rank0.pwrStateTime::SREF            0                       # Time in different power states
system.mem_ctrls.dram.rank0.pwrStateTime::PRE_PDN            0                       # Time in different power states
system.mem_ctrls.dram.rank0.pwrStateTime::ACT     54312500                       # Time in different power states
system.mem_ctrls.dram.rank0.pwrStateTime::ACT_PDN            0                       # Time in different power states
system.mem_ctrls.dram.rank1.actEnergy          521220                       # Energy for activate commands per rank (pJ)
system.mem_ctrls.dram.rank1.preEnergy          254265                       # Energy for precharge commands per rank (pJ)
system.mem_ctrls.dram.rank1.readEnergy        2184840                       # Energy for read commands per rank (pJ)
system.mem_ctrls.dram.rank1.writeEnergy        146160                       # Energy for write commands per rank (pJ)
system.mem_ctrls.dram.rank1.refreshEnergy 8604960.000000                       # Energy for refresh commands per rank (pJ)
system.mem_ctrls.dram.rank1.actBackEnergy     28307340                       # Energy for active background per rank (pJ)
system.mem_ctrls.dram.rank1.preBackEnergy     20218560                       # Energy for precharge background per rank (pJ)
system.mem_ctrls.dram.rank1.actPowerDownEnergy            0                       # Energy for active power-down per rank (pJ)
system.mem_ctrls.dram.rank1.prePowerDownEnergy            0                       # Energy for precharge power-down per rank (pJ)
system.mem_ctrls.dram.rank1.selfRefreshEnergy            0                       # Energy for self refresh per rank (pJ)
system.mem_ctrls.dram.rank1.totalEnergy      60237345                       # Total energy per rank (pJ)
system.mem_ctrls.dram.rank1.averagePower   525.035692                       # Core power per rank (mW)
system.mem_ctrls.dram.rank1.totalIdleTime            0                       # Total Idle time Per DRAM Rank
system.mem_ctrls.dram.rank1.pwrStateTime::IDLE     52336250                       # Time in different power states
system.mem_ctrls.dram.rank1.pwrStateTime::REF      3640000                       # Time in different power states
system.mem_ctrls.dram.rank1.pwrStateTime::SREF            0                       # Time in different power states
system.mem_ctrls.dram.rank1.pwrStateTime::PRE_PDN            0                       # Time in different power states
system.mem_ctrls.dram.rank1.pwrStateTime::ACT     58753750                       # Time in different power states
system.mem_ctrls.dram.rank1.pwrStateTime::ACT_PDN            0                       # Time in different power states
system.mem_ctrls.power_state.pwrStateResidencyTicks::UNDEFINED    114730000                       # Cumulative time (in ticks) in various power states
system.membus.trans_dist::ReadResp                626                       # Transaction distribution
system.membus.trans_dist::WritebackClean          213                       # Transaction distribution
system.membus.trans_dist::CleanEvict                1                       # Transaction distribution
system.membus.trans_dist::ReadExReq                69                       # Transaction distribution
system.membus.trans_dist::ReadExResp               69                       # Transaction distribution
system.membus.trans_dist::ReadCleanReq            518                       # Transaction distribution
system.membus.trans_dist::ReadSharedReq           108                       # Transaction distribution
system.membus.pkt_count_system.cpu.icache.mem_side_port::system.mem_ctrls.port         1249                       # Packet count per connected requestor and responder (bytes)
system.membus.pkt_count_system.cpu.dcache.mem_side_port::system.mem_ctrls.port          355                       # Packet count per connected requestor and responder (bytes)
system.membus.pkt_count::total                   1604                       # Packet count per connected requestor and responder (bytes)
system.membus.pkt_size_system.cpu.icache.mem_side_port::system.mem_ctrls.port        46784                       # Cumulative packet size per connected requestor and responder (bytes)
system.membus.pkt_size_system.cpu.dcache.mem_side_port::system.mem_ctrls.port        11328                       # Cumulative packet size per connected requestor and responder (bytes)
system.membus.pkt_size::total                   58112                       # Cumulative packet size per connected requestor and responder (bytes)
system.membus.snoops                                0                       # Total snoops (count)
system.membus.snoopTraffic                          0                       # Total snoop traffic (bytes)
system.membus.snoop_fanout::samples               695                       # Request fanout histogram
system.membus.snoop_fanout::mean             0.037410                       # Request fanout histogram
system.membus.snoop_fanout::stdev            0.189901                       # Request fanout histogram
system.membus.snoop_fanout::underflows              0      0.00%      0.00% # Request fanout histogram
system.membus.snoop_fanout::0                     669     96.26%     96.26% # Request fanout histogram
system.membus.snoop_fanout::1                      26      3.74%    100.00% # Request fanout histogram
system.membus.snoop_fanout::2                       0      0.00%    100.00% # Request fanout histogram
system.membus.snoop_fanout::overflows               0      0.00%    100.00% # Request fanout histogram
system.membus.snoop_fanout::min_value               0                       # Request fanout histogram
system.membus.snoop_fanout::max_value               1                       # Request fanout histogram
system.membus.snoop_fanout::total                 695                       # Request fanout histogram
system.membus.power_state.pwrStateResidencyTicks::UNDEFINED    114730000                       # Cumulative time (in ticks) in various power states
system.membus.reqLayer0.occupancy             1943500                       # Layer occupancy (ticks)
system.membus.reqLayer0.utilization               1.7                       # Layer utilization (%)
system.membus.respLayer1.occupancy            2707000                       # Layer occupancy (ticks)
system.membus.respLayer1.utilization              2.4                       # Layer utilization (%)
system.membus.respLayer2.occupancy             945250                       # Layer occupancy (ticks)
system.membus.respLayer2.utilization              0.8                       # Layer utilization (%)
system.voltage_domain.voltage                       1                       # Voltage in Volts

---------- End Simulation Statistics   ----------
