
---------- Begin Simulation Statistics ----------
final_tick                               516131116500                       # Number of ticks from beginning of simulation (restored from checkpoints and never reset)
host_inst_rate                                 190229                       # Simulator instruction rate (inst/s)
host_mem_usage                                 664128                       # Number of bytes of host memory used
host_op_rate                                   351179                       # Simulator op (including micro ops) rate (op/s)
host_seconds                                   525.68                       # Real time elapsed on the host
host_tick_rate                              981830075                       # Simulator tick rate (ticks/s)
sim_freq                                 1000000000000                       # Frequency of simulated ticks
sim_insts                                   100000000                       # Number of instructions simulated
sim_ops                                     184608571                       # Number of ops (including micro ops) simulated
sim_seconds                                  0.516131                       # Number of seconds simulated
sim_ticks                                516131116500                       # Number of ticks simulated
system.cpu.committedInsts                   100000000                       # Number of instructions committed
system.cpu.committedOps                     184608571                       # Number of ops (including micro ops) committed
system.cpu.cpi                              10.322622                       # CPI: cycles per instruction
system.cpu.discardedOps                          4365                       # Number of ops (including micro ops) which were discarded before commit
system.cpu.idleCycles                       809816071                       # Total number of cycles that the object has spent stopped
system.cpu.ipc                               0.096875                       # IPC: instructions per cycle
system.cpu.numCycles                       1032262233                       # number of cpu cycles simulated
system.cpu.numFetchSuspends                         0                       # Number of times Execute suspended instruction fetching
system.cpu.numWorkItemsCompleted                    0                       # number of work items this cpu completed
system.cpu.numWorkItemsStarted                      0                       # number of work items this cpu started
system.cpu.op_class_0::No_OpClass                   0      0.00%      0.00% # Class of committed instruction
system.cpu.op_class_0::IntAlu                97854705     53.01%     53.01% # Class of committed instruction
system.cpu.op_class_0::IntMult                     79      0.00%     53.01% # Class of committed instruction
system.cpu.op_class_0::IntDiv                       0      0.00%     53.01% # Class of committed instruction
system.cpu.op_class_0::FloatAdd                     0      0.00%     53.01% # Class of committed instruction
system.cpu.op_class_0::FloatCmp                     0      0.00%     53.01% # Class of committed instruction
system.cpu.op_class_0::FloatCvt                     0      0.00%     53.01% # Class of committed instruction
system.cpu.op_class_0::FloatMult                    0      0.00%     53.01% # Class of committed instruction
system.cpu.op_class_0::FloatMultAcc                 0      0.00%     53.01% # Class of committed instruction
system.cpu.op_class_0::FloatDiv                     0      0.00%     53.01% # Class of committed instruction
system.cpu.op_class_0::FloatMisc                    0      0.00%     53.01% # Class of committed instruction
system.cpu.op_class_0::FloatSqrt                    0      0.00%     53.01% # Class of committed instruction
system.cpu.op_class_0::SimdAdd                      0      0.00%     53.01% # Class of committed instruction
system.cpu.op_class_0::SimdAddAcc                   0      0.00%     53.01% # Class of committed instruction
system.cpu.op_class_0::SimdAlu                      0      0.00%     53.01% # Class of committed instruction
system.cpu.op_class_0::SimdCmp                      0      0.00%     53.01% # Class of committed instruction
system.cpu.op_class_0::SimdCvt                      0      0.00%     53.01% # Class of committed instruction
system.cpu.op_class_0::SimdMisc                     0      0.00%     53.01% # Class of committed instruction
system.cpu.op_class_0::SimdMult                     0      0.00%     53.01% # Class of committed instruction
system.cpu.op_class_0::SimdMultAcc                  0      0.00%     53.01% # Class of committed instruction
system.cpu.op_class_0::SimdShift                    0      0.00%     53.01% # Class of committed instruction
system.cpu.op_class_0::SimdShiftAcc                 0      0.00%     53.01% # Class of committed instruction
system.cpu.op_class_0::SimdDiv                      0      0.00%     53.01% # Class of committed instruction
system.cpu.op_class_0::SimdSqrt                     0      0.00%     53.01% # Class of committed instruction
system.cpu.op_class_0::SimdFloatAdd                 0      0.00%     53.01% # Class of committed instruction
system.cpu.op_class_0::SimdFloatAlu                 0      0.00%     53.01% # Class of committed instruction
system.cpu.op_class_0::SimdFloatCmp                 0      0.00%     53.01% # Class of committed instruction
system.cpu.op_class_0::SimdFloatCvt                 0      0.00%     53.01% # Class of committed instruction
system.cpu.op_class_0::SimdFloatDiv                 0      0.00%     53.01% # Class of committed instruction
system.cpu.op_class_0::SimdFloatMisc               11      0.00%     53.01% # Class of committed instruction
system.cpu.op_class_0::SimdFloatMult                0      0.00%     53.01% # Class of committed instruction
system.cpu.op_class_0::SimdFloatMultAcc             0      0.00%     53.01% # Class of committed instruction
system.cpu.op_class_0::SimdFloatSqrt                0      0.00%     53.01% # Class of committed instruction
system.cpu.op_class_0::SimdReduceAdd                0      0.00%     53.01% # Class of committed instruction
system.cpu.op_class_0::SimdReduceAlu                0      0.00%     53.01% # Class of committed instruction
system.cpu.op_class_0::SimdReduceCmp                0      0.00%     53.01% # Class of committed instruction
system.cpu.op_class_0::SimdFloatReduceAdd            0      0.00%     53.01% # Class of committed instruction
system.cpu.op_class_0::SimdFloatReduceCmp            0      0.00%     53.01% # Class of committed instruction
system.cpu.op_class_0::SimdAes                      0      0.00%     53.01% # Class of committed instruction
system.cpu.op_class_0::SimdAesMix                   0      0.00%     53.01% # Class of committed instruction
system.cpu.op_class_0::SimdSha1Hash                 0      0.00%     53.01% # Class of committed instruction
system.cpu.op_class_0::SimdSha1Hash2                0      0.00%     53.01% # Class of committed instruction
system.cpu.op_class_0::SimdSha256Hash               0      0.00%     53.01% # Class of committed instruction
system.cpu.op_class_0::SimdSha256Hash2              0      0.00%     53.01% # Class of committed instruction
system.cpu.op_class_0::SimdShaSigma2                0      0.00%     53.01% # Class of committed instruction
system.cpu.op_class_0::SimdShaSigma3                0      0.00%     53.01% # Class of committed instruction
system.cpu.op_class_0::SimdPredAlu                  0      0.00%     53.01% # Class of committed instruction
system.cpu.op_class_0::MemRead                1983215      1.07%     54.08% # Class of committed instruction
system.cpu.op_class_0::MemWrite              84770561     45.92%    100.00% # Class of committed instruction
system.cpu.op_class_0::FloatMemRead                 0      0.00%    100.00% # Class of committed instruction
system.cpu.op_class_0::FloatMemWrite                0      0.00%    100.00% # Class of committed instruction
system.cpu.op_class_0::IprAccess                    0      0.00%    100.00% # Class of committed instruction
system.cpu.op_class_0::InstPrefetch                 0      0.00%    100.00% # Class of committed instruction
system.cpu.op_class_0::total                184608571                       # Class of committed instruction
system.cpu.tickCycles                       222446162                       # Number of cycles that the object actually ticked
system.cpu.workload.numSyscalls                    19                       # Number of system calls
system.membus.snoop_filter.hit_multi_requests            0                       # Number of requests hitting in the snoop filter with multiple (>1) holders of the requested data.
system.membus.snoop_filter.hit_multi_snoops            0                       # Number of snoops hitting in the snoop filter with multiple (>1) holders of the requested data.
system.membus.snoop_filter.hit_single_requests      5271555                       # Number of requests hitting in the snoop filter with a single holder of the requested data.
system.membus.snoop_filter.hit_single_snoops            0                       # Number of snoops hitting in the snoop filter with a single holder of the requested data.
system.membus.snoop_filter.tot_requests      10559946                       # Total number of requests made to the snoop filter.
system.membus.snoop_filter.tot_snoops               0                       # Total number of snoops made to the snoop filter.
system.tol2bus.snoop_filter.hit_multi_requests          103                       # Number of requests hitting in the snoop filter with multiple (>1) holders of the requested data.
system.tol2bus.snoop_filter.hit_multi_snoops            0                       # Number of snoops hitting in the snoop filter with multiple (>1) holders of the requested data.
system.tol2bus.snoop_filter.hit_single_requests      5287089                       # Number of requests hitting in the snoop filter with a single holder of the requested data.
system.tol2bus.snoop_filter.hit_single_snoops          647                       # Number of snoops hitting in the snoop filter with a single holder of the requested data.
system.tol2bus.snoop_filter.tot_requests     10575668                       # Total number of requests made to the snoop filter.
system.tol2bus.snoop_filter.tot_snoops            647                       # Total number of snoops made to the snoop filter.
system.clk_domain.clock                          1000                       # Clock period in ticks
system.cpu.branchPred.lookups                10707623                       # Number of BP lookups
system.cpu.branchPred.condPredicted          10698595                       # Number of conditional branches predicted
system.cpu.branchPred.condIncorrect              1503                       # Number of conditional branches incorrect
system.cpu.branchPred.BTBLookups             10699394                       # Number of BTB lookups
system.cpu.branchPred.BTBHits                10697719                       # Number of BTB hits
system.cpu.branchPred.BTBHitPct             99.984345                       # BTB Hit Percentage
system.cpu.branchPred.RASUsed                    2863                       # Number of times the RAS was used to get a target.
system.cpu.branchPred.RASIncorrect                  1                       # Number of incorrect RAS predictions.
system.cpu.branchPred.indirectLookups             354                       # Number of indirect predictor lookups.
system.cpu.branchPred.indirectHits                161                       # Number of indirect target hits.
system.cpu.branchPred.indirectMisses              193                       # Number of indirect misses.
system.cpu.branchPred.indirectMispredicted          152                       # Number of mispredicted indirect branches.
system.cpu.dcache.demand_hits::.cpu.data     76098230                       # number of demand (read+write) hits
system.cpu.dcache.demand_hits::total         76098230                       # number of demand (read+write) hits
system.cpu.dcache.overall_hits::.cpu.data     76098278                       # number of overall hits
system.cpu.dcache.overall_hits::total        76098278                       # number of overall hits
system.cpu.dcache.demand_misses::.cpu.data     10572543                       # number of demand (read+write) misses
system.cpu.dcache.demand_misses::total       10572543                       # number of demand (read+write) misses
system.cpu.dcache.overall_misses::.cpu.data     10572576                       # number of overall misses
system.cpu.dcache.overall_misses::total      10572576                       # number of overall misses
system.cpu.dcache.demand_miss_latency::.cpu.data 880901659000                       # number of demand (read+write) miss cycles
system.cpu.dcache.demand_miss_latency::total 880901659000                       # number of demand (read+write) miss cycles
system.cpu.dcache.overall_miss_latency::.cpu.data 880901659000                       # number of overall miss cycles
system.cpu.dcache.overall_miss_latency::total 880901659000                       # number of overall miss cycles
system.cpu.dcache.demand_accesses::.cpu.data     86670773                       # number of demand (read+write) accesses
system.cpu.dcache.demand_accesses::total     86670773                       # number of demand (read+write) accesses
system.cpu.dcache.overall_accesses::.cpu.data     86670854                       # number of overall (read+write) accesses
system.cpu.dcache.overall_accesses::total     86670854                       # number of overall (read+write) accesses
system.cpu.dcache.demand_miss_rate::.cpu.data     0.121985                       # miss rate for demand accesses
system.cpu.dcache.demand_miss_rate::total     0.121985                       # miss rate for demand accesses
system.cpu.dcache.overall_miss_rate::.cpu.data     0.121985                       # miss rate for overall accesses
system.cpu.dcache.overall_miss_rate::total     0.121985                       # miss rate for overall accesses
system.cpu.dcache.demand_avg_miss_latency::.cpu.data 83319.751833                       # average overall miss latency
system.cpu.dcache.demand_avg_miss_latency::total 83319.751833                       # average overall miss latency
system.cpu.dcache.overall_avg_miss_latency::.cpu.data 83319.491768                       # average overall miss latency
system.cpu.dcache.overall_avg_miss_latency::total 83319.491768                       # average overall miss latency
system.cpu.dcache.blocked_cycles::no_mshrs          137                       # number of cycles access was blocked
system.cpu.dcache.blocked_cycles::no_targets            0                       # number of cycles access was blocked
system.cpu.dcache.blocked::no_mshrs                 1                       # number of cycles access was blocked
system.cpu.dcache.blocked::no_targets               0                       # number of cycles access was blocked
system.cpu.dcache.avg_blocked_cycles::no_mshrs          137                       # average number of cycles each access was blocked
system.cpu.dcache.avg_blocked_cycles::no_targets          nan                       # average number of cycles each access was blocked
system.cpu.dcache.writebacks::.writebacks      5286367                       # number of writebacks
system.cpu.dcache.writebacks::total           5286367                       # number of writebacks
system.cpu.dcache.demand_mshr_hits::.cpu.data      5284808                       # number of demand (read+write) MSHR hits
system.cpu.dcache.demand_mshr_hits::total      5284808                       # number of demand (read+write) MSHR hits
system.cpu.dcache.overall_mshr_hits::.cpu.data      5284808                       # number of overall MSHR hits
system.cpu.dcache.overall_mshr_hits::total      5284808                       # number of overall MSHR hits
system.cpu.dcache.demand_mshr_misses::.cpu.data      5287735                       # number of demand (read+write) MSHR misses
system.cpu.dcache.demand_mshr_misses::total      5287735                       # number of demand (read+write) MSHR misses
system.cpu.dcache.overall_mshr_misses::.cpu.data      5287756                       # number of overall MSHR misses
system.cpu.dcache.overall_mshr_misses::total      5287756                       # number of overall MSHR misses
system.cpu.dcache.demand_mshr_miss_latency::.cpu.data 433965492500                       # number of demand (read+write) MSHR miss cycles
system.cpu.dcache.demand_mshr_miss_latency::total 433965492500                       # number of demand (read+write) MSHR miss cycles
system.cpu.dcache.overall_mshr_miss_latency::.cpu.data 433967057500                       # number of overall MSHR miss cycles
system.cpu.dcache.overall_mshr_miss_latency::total 433967057500                       # number of overall MSHR miss cycles
system.cpu.dcache.demand_mshr_miss_rate::.cpu.data     0.061009                       # mshr miss rate for demand accesses
system.cpu.dcache.demand_mshr_miss_rate::total     0.061009                       # mshr miss rate for demand accesses
system.cpu.dcache.overall_mshr_miss_rate::.cpu.data     0.061010                       # mshr miss rate for overall accesses
system.cpu.dcache.overall_mshr_miss_rate::total     0.061010                       # mshr miss rate for overall accesses
system.cpu.dcache.demand_avg_mshr_miss_latency::.cpu.data 82070.204445                       # average overall mshr miss latency
system.cpu.dcache.demand_avg_mshr_miss_latency::total 82070.204445                       # average overall mshr miss latency
system.cpu.dcache.overall_avg_mshr_miss_latency::.cpu.data 82070.174475                       # average overall mshr miss latency
system.cpu.dcache.overall_avg_mshr_miss_latency::total 82070.174475                       # average overall mshr miss latency
system.cpu.dcache.replacements                5286733                       # number of replacements
system.cpu.dcache.ReadReq_hits::.cpu.data      1944195                       # number of ReadReq hits
system.cpu.dcache.ReadReq_hits::total         1944195                       # number of ReadReq hits
system.cpu.dcache.ReadReq_misses::.cpu.data          430                       # number of ReadReq misses
system.cpu.dcache.ReadReq_misses::total           430                       # number of ReadReq misses
system.cpu.dcache.ReadReq_miss_latency::.cpu.data     32048000                       # number of ReadReq miss cycles
system.cpu.dcache.ReadReq_miss_latency::total     32048000                       # number of ReadReq miss cycles
system.cpu.dcache.ReadReq_accesses::.cpu.data      1944625                       # number of ReadReq accesses(hits+misses)
system.cpu.dcache.ReadReq_accesses::total      1944625                       # number of ReadReq accesses(hits+misses)
system.cpu.dcache.ReadReq_miss_rate::.cpu.data     0.000221                       # miss rate for ReadReq accesses
system.cpu.dcache.ReadReq_miss_rate::total     0.000221                       # miss rate for ReadReq accesses
system.cpu.dcache.ReadReq_avg_miss_latency::.cpu.data 74530.232558                       # average ReadReq miss latency
system.cpu.dcache.ReadReq_avg_miss_latency::total 74530.232558                       # average ReadReq miss latency
system.cpu.dcache.ReadReq_mshr_hits::.cpu.data           43                       # number of ReadReq MSHR hits
system.cpu.dcache.ReadReq_mshr_hits::total           43                       # number of ReadReq MSHR hits
system.cpu.dcache.ReadReq_mshr_misses::.cpu.data          387                       # number of ReadReq MSHR misses
system.cpu.dcache.ReadReq_mshr_misses::total          387                       # number of ReadReq MSHR misses
system.cpu.dcache.ReadReq_mshr_miss_latency::.cpu.data     28606000                       # number of ReadReq MSHR miss cycles
system.cpu.dcache.ReadReq_mshr_miss_latency::total     28606000                       # number of ReadReq MSHR miss cycles
system.cpu.dcache.ReadReq_mshr_miss_rate::.cpu.data     0.000199                       # mshr miss rate for ReadReq accesses
system.cpu.dcache.ReadReq_mshr_miss_rate::total     0.000199                       # mshr miss rate for ReadReq accesses
system.cpu.dcache.ReadReq_avg_mshr_miss_latency::.cpu.data 73917.312661                       # average ReadReq mshr miss latency
system.cpu.dcache.ReadReq_avg_mshr_miss_latency::total 73917.312661                       # average ReadReq mshr miss latency
system.cpu.dcache.WriteReq_hits::.cpu.data     74154035                       # number of WriteReq hits
system.cpu.dcache.WriteReq_hits::total       74154035                       # number of WriteReq hits
system.cpu.dcache.WriteReq_misses::.cpu.data     10572113                       # number of WriteReq misses
system.cpu.dcache.WriteReq_misses::total     10572113                       # number of WriteReq misses
system.cpu.dcache.WriteReq_miss_latency::.cpu.data 880869611000                       # number of WriteReq miss cycles
system.cpu.dcache.WriteReq_miss_latency::total 880869611000                       # number of WriteReq miss cycles
system.cpu.dcache.WriteReq_accesses::.cpu.data     84726148                       # number of WriteReq accesses(hits+misses)
system.cpu.dcache.WriteReq_accesses::total     84726148                       # number of WriteReq accesses(hits+misses)
system.cpu.dcache.WriteReq_miss_rate::.cpu.data     0.124780                       # miss rate for WriteReq accesses
system.cpu.dcache.WriteReq_miss_rate::total     0.124780                       # miss rate for WriteReq accesses
system.cpu.dcache.WriteReq_avg_miss_latency::.cpu.data 83320.109329                       # average WriteReq miss latency
system.cpu.dcache.WriteReq_avg_miss_latency::total 83320.109329                       # average WriteReq miss latency
system.cpu.dcache.WriteReq_mshr_hits::.cpu.data      5284765                       # number of WriteReq MSHR hits
system.cpu.dcache.WriteReq_mshr_hits::total      5284765                       # number of WriteReq MSHR hits
system.cpu.dcache.WriteReq_mshr_misses::.cpu.data      5287348                       # number of WriteReq MSHR misses
system.cpu.dcache.WriteReq_mshr_misses::total      5287348                       # number of WriteReq MSHR misses
system.cpu.dcache.WriteReq_mshr_miss_latency::.cpu.data 433936886500                       # number of WriteReq MSHR miss cycles
system.cpu.dcache.WriteReq_mshr_miss_latency::total 433936886500                       # number of WriteReq MSHR miss cycles
system.cpu.dcache.WriteReq_mshr_miss_rate::.cpu.data     0.062405                       # mshr miss rate for WriteReq accesses
system.cpu.dcache.WriteReq_mshr_miss_rate::total     0.062405                       # mshr miss rate for WriteReq accesses
system.cpu.dcache.WriteReq_avg_mshr_miss_latency::.cpu.data 82070.801184                       # average WriteReq mshr miss latency
system.cpu.dcache.WriteReq_avg_mshr_miss_latency::total 82070.801184                       # average WriteReq mshr miss latency
system.cpu.dcache.SoftPFReq_hits::.cpu.data           48                       # number of SoftPFReq hits
system.cpu.dcache.SoftPFReq_hits::total            48                       # number of SoftPFReq hits
system.cpu.dcache.SoftPFReq_misses::.cpu.data           33                       # number of SoftPFReq misses
system.cpu.dcache.SoftPFReq_misses::total           33                       # number of SoftPFReq misses
system.cpu.dcache.SoftPFReq_accesses::.cpu.data           81                       # number of SoftPFReq accesses(hits+misses)
system.cpu.dcache.SoftPFReq_accesses::total           81                       # number of SoftPFReq accesses(hits+misses)
system.cpu.dcache.SoftPFReq_miss_rate::.cpu.data     0.407407                       # miss rate for SoftPFReq accesses
system.cpu.dcache.SoftPFReq_miss_rate::total     0.407407                       # miss rate for SoftPFReq accesses
system.cpu.dcache.SoftPFReq_mshr_misses::.cpu.data           21                       # number of SoftPFReq MSHR misses
system.cpu.dcache.SoftPFReq_mshr_misses::total           21                       # number of SoftPFReq MSHR misses
system.cpu.dcache.SoftPFReq_mshr_miss_latency::.cpu.data      1565000                       # number of SoftPFReq MSHR miss cycles
system.cpu.dcache.SoftPFReq_mshr_miss_latency::total      1565000                       # number of SoftPFReq MSHR miss cycles
system.cpu.dcache.SoftPFReq_mshr_miss_rate::.cpu.data     0.259259                       # mshr miss rate for SoftPFReq accesses
system.cpu.dcache.SoftPFReq_mshr_miss_rate::total     0.259259                       # mshr miss rate for SoftPFReq accesses
system.cpu.dcache.SoftPFReq_avg_mshr_miss_latency::.cpu.data 74523.809524                       # average SoftPFReq mshr miss latency
system.cpu.dcache.SoftPFReq_avg_mshr_miss_latency::total 74523.809524                       # average SoftPFReq mshr miss latency
system.cpu.dcache.LoadLockedReq_hits::.cpu.data           33                       # number of LoadLockedReq hits
system.cpu.dcache.LoadLockedReq_hits::total           33                       # number of LoadLockedReq hits
system.cpu.dcache.LoadLockedReq_misses::.cpu.data            1                       # number of LoadLockedReq misses
system.cpu.dcache.LoadLockedReq_misses::total            1                       # number of LoadLockedReq misses
system.cpu.dcache.LoadLockedReq_miss_latency::.cpu.data        86500                       # number of LoadLockedReq miss cycles
system.cpu.dcache.LoadLockedReq_miss_latency::total        86500                       # number of LoadLockedReq miss cycles
system.cpu.dcache.LoadLockedReq_accesses::.cpu.data           34                       # number of LoadLockedReq accesses(hits+misses)
system.cpu.dcache.LoadLockedReq_accesses::total           34                       # number of LoadLockedReq accesses(hits+misses)
system.cpu.dcache.LoadLockedReq_miss_rate::.cpu.data     0.029412                       # miss rate for LoadLockedReq accesses
system.cpu.dcache.LoadLockedReq_miss_rate::total     0.029412                       # miss rate for LoadLockedReq accesses
system.cpu.dcache.LoadLockedReq_avg_miss_latency::.cpu.data        86500                       # average LoadLockedReq miss latency
system.cpu.dcache.LoadLockedReq_avg_miss_latency::total        86500                       # average LoadLockedReq miss latency
system.cpu.dcache.LoadLockedReq_mshr_misses::.cpu.data            1                       # number of LoadLockedReq MSHR misses
system.cpu.dcache.LoadLockedReq_mshr_misses::total            1                       # number of LoadLockedReq MSHR misses
system.cpu.dcache.LoadLockedReq_mshr_miss_latency::.cpu.data        85500                       # number of LoadLockedReq MSHR miss cycles
system.cpu.dcache.LoadLockedReq_mshr_miss_latency::total        85500                       # number of LoadLockedReq MSHR miss cycles
system.cpu.dcache.LoadLockedReq_mshr_miss_rate::.cpu.data     0.029412                       # mshr miss rate for LoadLockedReq accesses
system.cpu.dcache.LoadLockedReq_mshr_miss_rate::total     0.029412                       # mshr miss rate for LoadLockedReq accesses
system.cpu.dcache.LoadLockedReq_avg_mshr_miss_latency::.cpu.data        85500                       # average LoadLockedReq mshr miss latency
system.cpu.dcache.LoadLockedReq_avg_mshr_miss_latency::total        85500                       # average LoadLockedReq mshr miss latency
system.cpu.dcache.StoreCondReq_hits::.cpu.data           34                       # number of StoreCondReq hits
system.cpu.dcache.StoreCondReq_hits::total           34                       # number of StoreCondReq hits
system.cpu.dcache.StoreCondReq_accesses::.cpu.data           34                       # number of StoreCondReq accesses(hits+misses)
system.cpu.dcache.StoreCondReq_accesses::total           34                       # number of StoreCondReq accesses(hits+misses)
system.cpu.dcache.power_state.pwrStateResidencyTicks::UNDEFINED 516131116500                       # Cumulative time (in ticks) in various power states
system.cpu.dcache.tags.tagsinuse          1023.581982                       # Cycle average of tags in use
system.cpu.dcache.tags.total_refs            81386102                       # Total number of references to valid blocks.
system.cpu.dcache.tags.sampled_refs           5287757                       # Sample count of references to valid blocks.
system.cpu.dcache.tags.avg_refs             15.391422                       # Average number of references to valid blocks.
system.cpu.dcache.tags.warmup_cycle            249500                       # Cycle when the warmup percentage was hit.
system.cpu.dcache.tags.occ_blocks::.cpu.data  1023.581982                       # Average occupied blocks per requestor
system.cpu.dcache.tags.occ_percent::.cpu.data     0.999592                       # Average percentage of cache occupancy
system.cpu.dcache.tags.occ_percent::total     0.999592                       # Average percentage of cache occupancy
system.cpu.dcache.tags.occ_task_id_blocks::1024         1024                       # Occupied blocks per task id
system.cpu.dcache.tags.age_task_id_blocks_1024::0          105                       # Occupied blocks per task id
system.cpu.dcache.tags.age_task_id_blocks_1024::1          919                       # Occupied blocks per task id
system.cpu.dcache.tags.occ_task_id_percent::1024            1                       # Percentage of cache occupancy per task id
system.cpu.dcache.tags.tag_accesses         178629601                       # Number of tag accesses
system.cpu.dcache.tags.data_accesses        178629601                       # Number of data accesses
system.cpu.dcache.tags.power_state.pwrStateResidencyTicks::UNDEFINED 516131116500                       # Cumulative time (in ticks) in various power states
system.cpu.dtb.instHits                             0                       # ITB inst hits
system.cpu.dtb.instMisses                           0                       # ITB inst misses
system.cpu.dtb.readHits                             0                       # DTB read hits
system.cpu.dtb.readMisses                           0                       # DTB read misses
system.cpu.dtb.writeHits                            0                       # DTB write hits
system.cpu.dtb.writeMisses                          0                       # DTB write misses
system.cpu.dtb.inserts                              0                       # Number of times an entry is inserted into the TLB
system.cpu.dtb.flushTlb                             0                       # Number of times complete TLB was flushed
system.cpu.dtb.flushTlbMva                          0                       # Number of times TLB was flushed by MVA
system.cpu.dtb.flushTlbMvaAsid                      0                       # Number of times TLB was flushed by MVA & ASID
system.cpu.dtb.flushTlbAsid                         0                       # Number of times TLB was flushed by ASID
system.cpu.dtb.flushedEntries                       0                       # Number of entries that have been flushed from TLB
system.cpu.dtb.alignFaults                          0                       # Number of TLB faults due to alignment restrictions
system.cpu.dtb.prefetchFaults                       0                       # Number of TLB faults due to prefetch
system.cpu.dtb.domainFaults                         0                       # Number of TLB faults due to domain restrictions
system.cpu.dtb.permsFaults                          0                       # Number of TLB faults due to permissions restrictions
system.cpu.dtb.readAccesses                         0                       # DTB read accesses
system.cpu.dtb.writeAccesses                        0                       # DTB write accesses
system.cpu.dtb.instAccesses                         0                       # ITB inst accesses
system.cpu.dtb.hits                                 0                       # Total TLB (inst and data) hits
system.cpu.dtb.misses                               0                       # Total TLB (inst and data) misses
system.cpu.dtb.accesses                             0                       # Total TLB (inst and data) accesses
system.cpu.dtb.stage2_mmu.stage2_tlb.instHits            0                       # ITB inst hits
system.cpu.dtb.stage2_mmu.stage2_tlb.instMisses            0                       # ITB inst misses
system.cpu.dtb.stage2_mmu.stage2_tlb.readHits            0                       # DTB read hits
system.cpu.dtb.stage2_mmu.stage2_tlb.readMisses            0                       # DTB read misses
system.cpu.dtb.stage2_mmu.stage2_tlb.writeHits            0                       # DTB write hits
system.cpu.dtb.stage2_mmu.stage2_tlb.writeMisses            0                       # DTB write misses
system.cpu.dtb.stage2_mmu.stage2_tlb.inserts            0                       # Number of times an entry is inserted into the TLB
system.cpu.dtb.stage2_mmu.stage2_tlb.flushTlb            0                       # Number of times complete TLB was flushed
system.cpu.dtb.stage2_mmu.stage2_tlb.flushTlbMva            0                       # Number of times TLB was flushed by MVA
system.cpu.dtb.stage2_mmu.stage2_tlb.flushTlbMvaAsid            0                       # Number of times TLB was flushed by MVA & ASID
system.cpu.dtb.stage2_mmu.stage2_tlb.flushTlbAsid            0                       # Number of times TLB was flushed by ASID
system.cpu.dtb.stage2_mmu.stage2_tlb.flushedEntries            0                       # Number of entries that have been flushed from TLB
system.cpu.dtb.stage2_mmu.stage2_tlb.alignFaults            0                       # Number of TLB faults due to alignment restrictions
system.cpu.dtb.stage2_mmu.stage2_tlb.prefetchFaults            0                       # Number of TLB faults due to prefetch
system.cpu.dtb.stage2_mmu.stage2_tlb.domainFaults            0                       # Number of TLB faults due to domain restrictions
system.cpu.dtb.stage2_mmu.stage2_tlb.permsFaults            0                       # Number of TLB faults due to permissions restrictions
system.cpu.dtb.stage2_mmu.stage2_tlb.readAccesses            0                       # DTB read accesses
system.cpu.dtb.stage2_mmu.stage2_tlb.writeAccesses            0                       # DTB write accesses
system.cpu.dtb.stage2_mmu.stage2_tlb.instAccesses            0                       # ITB inst accesses
system.cpu.dtb.stage2_mmu.stage2_tlb.hits            0                       # Total TLB (inst and data) hits
system.cpu.dtb.stage2_mmu.stage2_tlb.misses            0                       # Total TLB (inst and data) misses
system.cpu.dtb.stage2_mmu.stage2_tlb.accesses            0                       # Total TLB (inst and data) accesses
system.cpu.dtb.stage2_mmu.stage2_tlb.walker.walks            0                       # Table walker walks requested
system.cpu.dtb.stage2_mmu.stage2_tlb.walker.requestOrigin_Requested::Data            0                       # Table walker requests started/completed, data/inst
system.cpu.dtb.stage2_mmu.stage2_tlb.walker.requestOrigin_Requested::Inst            0                       # Table walker requests started/completed, data/inst
system.cpu.dtb.stage2_mmu.stage2_tlb.walker.requestOrigin_Requested::total            0                       # Table walker requests started/completed, data/inst
system.cpu.dtb.stage2_mmu.stage2_tlb.walker.requestOrigin_Completed::Data            0                       # Table walker requests started/completed, data/inst
system.cpu.dtb.stage2_mmu.stage2_tlb.walker.requestOrigin_Completed::Inst            0                       # Table walker requests started/completed, data/inst
system.cpu.dtb.stage2_mmu.stage2_tlb.walker.requestOrigin_Completed::total            0                       # Table walker requests started/completed, data/inst
system.cpu.dtb.stage2_mmu.stage2_tlb.walker.requestOrigin::total            0                       # Table walker requests started/completed, data/inst
system.cpu.dtb.stage2_mmu.stage2_tlb.walker.power_state.pwrStateResidencyTicks::UNDEFINED 516131116500                       # Cumulative time (in ticks) in various power states
system.cpu.dtb.walker.walks                         0                       # Table walker walks requested
system.cpu.dtb.walker.requestOrigin_Requested::Data            0                       # Table walker requests started/completed, data/inst
system.cpu.dtb.walker.requestOrigin_Requested::Inst            0                       # Table walker requests started/completed, data/inst
system.cpu.dtb.walker.requestOrigin_Requested::total            0                       # Table walker requests started/completed, data/inst
system.cpu.dtb.walker.requestOrigin_Completed::Data            0                       # Table walker requests started/completed, data/inst
system.cpu.dtb.walker.requestOrigin_Completed::Inst            0                       # Table walker requests started/completed, data/inst
system.cpu.dtb.walker.requestOrigin_Completed::total            0                       # Table walker requests started/completed, data/inst
system.cpu.dtb.walker.requestOrigin::total            0                       # Table walker requests started/completed, data/inst
system.cpu.dtb.walker.power_state.pwrStateResidencyTicks::UNDEFINED 516131116500                       # Cumulative time (in ticks) in various power states
system.cpu.fetch2.intInstructions            45145216                       # Number of integer instructions successfully decoded
system.cpu.fetch2.fpInstructions                    0                       # Number of floating point instructions successfully decoded
system.cpu.fetch2.vecInstructions                   0                       # Number of SIMD instructions successfully decoded
system.cpu.fetch2.loadInstructions            1987998                       # Number of memory load instructions successfully decoded
system.cpu.fetch2.storeInstructions            169251                       # Number of memory store instructions successfully decoded
system.cpu.fetch2.amoInstructions                   0                       # Number of memory atomic instructions successfully decoded
system.cpu.icache.demand_hits::.cpu.inst     32388526                       # number of demand (read+write) hits
system.cpu.icache.demand_hits::total         32388526                       # number of demand (read+write) hits
system.cpu.icache.overall_hits::.cpu.inst     32388526                       # number of overall hits
system.cpu.icache.overall_hits::total        32388526                       # number of overall hits
system.cpu.icache.demand_misses::.cpu.inst          822                       # number of demand (read+write) misses
system.cpu.icache.demand_misses::total            822                       # number of demand (read+write) misses
system.cpu.icache.overall_misses::.cpu.inst          822                       # number of overall misses
system.cpu.icache.overall_misses::total           822                       # number of overall misses
system.cpu.icache.demand_miss_latency::.cpu.inst     61328000                       # number of demand (read+write) miss cycles
system.cpu.icache.demand_miss_latency::total     61328000                       # number of demand (read+write) miss cycles
system.cpu.icache.overall_miss_latency::.cpu.inst     61328000                       # number of overall miss cycles
system.cpu.icache.overall_miss_latency::total     61328000                       # number of overall miss cycles
system.cpu.icache.demand_accesses::.cpu.inst     32389348                       # number of demand (read+write) accesses
system.cpu.icache.demand_accesses::total     32389348                       # number of demand (read+write) accesses
system.cpu.icache.overall_accesses::.cpu.inst     32389348                       # number of overall (read+write) accesses
system.cpu.icache.overall_accesses::total     32389348                       # number of overall (read+write) accesses
system.cpu.icache.demand_miss_rate::.cpu.inst     0.000025                       # miss rate for demand accesses
system.cpu.icache.demand_miss_rate::total     0.000025                       # miss rate for demand accesses
system.cpu.icache.overall_miss_rate::.cpu.inst     0.000025                       # miss rate for overall accesses
system.cpu.icache.overall_miss_rate::total     0.000025                       # miss rate for overall accesses
system.cpu.icache.demand_avg_miss_latency::.cpu.inst 74608.272506                       # average overall miss latency
system.cpu.icache.demand_avg_miss_latency::total 74608.272506                       # average overall miss latency
system.cpu.icache.overall_avg_miss_latency::.cpu.inst 74608.272506                       # average overall miss latency
system.cpu.icache.overall_avg_miss_latency::total 74608.272506                       # average overall miss latency
system.cpu.icache.blocked_cycles::no_mshrs            0                       # number of cycles access was blocked
system.cpu.icache.blocked_cycles::no_targets            0                       # number of cycles access was blocked
system.cpu.icache.blocked::no_mshrs                 0                       # number of cycles access was blocked
system.cpu.icache.blocked::no_targets               0                       # number of cycles access was blocked
system.cpu.icache.avg_blocked_cycles::no_mshrs          nan                       # average number of cycles each access was blocked
system.cpu.icache.avg_blocked_cycles::no_targets          nan                       # average number of cycles each access was blocked
system.cpu.icache.writebacks::.writebacks          356                       # number of writebacks
system.cpu.icache.writebacks::total               356                       # number of writebacks
system.cpu.icache.demand_mshr_misses::.cpu.inst          822                       # number of demand (read+write) MSHR misses
system.cpu.icache.demand_mshr_misses::total          822                       # number of demand (read+write) MSHR misses
system.cpu.icache.overall_mshr_misses::.cpu.inst          822                       # number of overall MSHR misses
system.cpu.icache.overall_mshr_misses::total          822                       # number of overall MSHR misses
system.cpu.icache.demand_mshr_miss_latency::.cpu.inst     60506000                       # number of demand (read+write) MSHR miss cycles
system.cpu.icache.demand_mshr_miss_latency::total     60506000                       # number of demand (read+write) MSHR miss cycles
system.cpu.icache.overall_mshr_miss_latency::.cpu.inst     60506000                       # number of overall MSHR miss cycles
system.cpu.icache.overall_mshr_miss_latency::total     60506000                       # number of overall MSHR miss cycles
system.cpu.icache.demand_mshr_miss_rate::.cpu.inst     0.000025                       # mshr miss rate for demand accesses
system.cpu.icache.demand_mshr_miss_rate::total     0.000025                       # mshr miss rate for demand accesses
system.cpu.icache.overall_mshr_miss_rate::.cpu.inst     0.000025                       # mshr miss rate for overall accesses
system.cpu.icache.overall_mshr_miss_rate::total     0.000025                       # mshr miss rate for overall accesses
system.cpu.icache.demand_avg_mshr_miss_latency::.cpu.inst 73608.272506                       # average overall mshr miss latency
system.cpu.icache.demand_avg_mshr_miss_latency::total 73608.272506                       # average overall mshr miss latency
system.cpu.icache.overall_avg_mshr_miss_latency::.cpu.inst 73608.272506                       # average overall mshr miss latency
system.cpu.icache.overall_avg_mshr_miss_latency::total 73608.272506                       # average overall mshr miss latency
system.cpu.icache.replacements                    356                       # number of replacements
system.cpu.icache.ReadReq_hits::.cpu.inst     32388526                       # number of ReadReq hits
system.cpu.icache.ReadReq_hits::total        32388526                       # number of ReadReq hits
system.cpu.icache.ReadReq_misses::.cpu.inst          822                       # number of ReadReq misses
system.cpu.icache.ReadReq_misses::total           822                       # number of ReadReq misses
system.cpu.icache.ReadReq_miss_latency::.cpu.inst     61328000                       # number of ReadReq miss cycles
system.cpu.icache.ReadReq_miss_latency::total     61328000                       # number of ReadReq miss cycles
system.cpu.icache.ReadReq_accesses::.cpu.inst     32389348                       # number of ReadReq accesses(hits+misses)
system.cpu.icache.ReadReq_accesses::total     32389348                       # number of ReadReq accesses(hits+misses)
system.cpu.icache.ReadReq_miss_rate::.cpu.inst     0.000025                       # miss rate for ReadReq accesses
system.cpu.icache.ReadReq_miss_rate::total     0.000025                       # miss rate for ReadReq accesses
system.cpu.icache.ReadReq_avg_miss_latency::.cpu.inst 74608.272506                       # average ReadReq miss latency
system.cpu.icache.ReadReq_avg_miss_latency::total 74608.272506                       # average ReadReq miss latency
system.cpu.icache.ReadReq_mshr_misses::.cpu.inst          822                       # number of ReadReq MSHR misses
system.cpu.icache.ReadReq_mshr_misses::total          822                       # number of ReadReq MSHR misses
system.cpu.icache.ReadReq_mshr_miss_latency::.cpu.inst     60506000                       # number of ReadReq MSHR miss cycles
system.cpu.icache.ReadReq_mshr_miss_latency::total     60506000                       # number of ReadReq MSHR miss cycles
system.cpu.icache.ReadReq_mshr_miss_rate::.cpu.inst     0.000025                       # mshr miss rate for ReadReq accesses
system.cpu.icache.ReadReq_mshr_miss_rate::total     0.000025                       # mshr miss rate for ReadReq accesses
system.cpu.icache.ReadReq_avg_mshr_miss_latency::.cpu.inst 73608.272506                       # average ReadReq mshr miss latency
system.cpu.icache.ReadReq_avg_mshr_miss_latency::total 73608.272506                       # average ReadReq mshr miss latency
system.cpu.icache.power_state.pwrStateResidencyTicks::UNDEFINED 516131116500                       # Cumulative time (in ticks) in various power states
system.cpu.icache.tags.tagsinuse           425.639885                       # Cycle average of tags in use
system.cpu.icache.tags.total_refs            32389348                       # Total number of references to valid blocks.
system.cpu.icache.tags.sampled_refs               822                       # Sample count of references to valid blocks.
system.cpu.icache.tags.avg_refs          39403.099757                       # Average number of references to valid blocks.
system.cpu.icache.tags.warmup_cycle             87500                       # Cycle when the warmup percentage was hit.
system.cpu.icache.tags.occ_blocks::.cpu.inst   425.639885                       # Average occupied blocks per requestor
system.cpu.icache.tags.occ_percent::.cpu.inst     0.831328                       # Average percentage of cache occupancy
system.cpu.icache.tags.occ_percent::total     0.831328                       # Average percentage of cache occupancy
system.cpu.icache.tags.occ_task_id_blocks::1024          466                       # Occupied blocks per task id
system.cpu.icache.tags.age_task_id_blocks_1024::4          466                       # Occupied blocks per task id
system.cpu.icache.tags.occ_task_id_percent::1024     0.910156                       # Percentage of cache occupancy per task id
system.cpu.icache.tags.tag_accesses          64779518                       # Number of tag accesses
system.cpu.icache.tags.data_accesses         64779518                       # Number of data accesses
system.cpu.icache.tags.power_state.pwrStateResidencyTicks::UNDEFINED 516131116500                       # Cumulative time (in ticks) in various power states
system.cpu.itb.instHits                             0                       # ITB inst hits
system.cpu.itb.instMisses                           0                       # ITB inst misses
system.cpu.itb.readHits                             0                       # DTB read hits
system.cpu.itb.readMisses                           0                       # DTB read misses
system.cpu.itb.writeHits                            0                       # DTB write hits
system.cpu.itb.writeMisses                          0                       # DTB write misses
system.cpu.itb.inserts                              0                       # Number of times an entry is inserted into the TLB
system.cpu.itb.flushTlb                             0                       # Number of times complete TLB was flushed
system.cpu.itb.flushTlbMva                          0                       # Number of times TLB was flushed by MVA
system.cpu.itb.flushTlbMvaAsid                      0                       # Number of times TLB was flushed by MVA & ASID
system.cpu.itb.flushTlbAsid                         0                       # Number of times TLB was flushed by ASID
system.cpu.itb.flushedEntries                       0                       # Number of entries that have been flushed from TLB
system.cpu.itb.alignFaults                          0                       # Number of TLB faults due to alignment restrictions
system.cpu.itb.prefetchFaults                       0                       # Number of TLB faults due to prefetch
system.cpu.itb.domainFaults                         0                       # Number of TLB faults due to domain restrictions
system.cpu.itb.permsFaults                          0                       # Number of TLB faults due to permissions restrictions
system.cpu.itb.readAccesses                         0                       # DTB read accesses
system.cpu.itb.writeAccesses                        0                       # DTB write accesses
system.cpu.itb.instAccesses                         0                       # ITB inst accesses
system.cpu.itb.hits                                 0                       # Total TLB (inst and data) hits
system.cpu.itb.misses                               0                       # Total TLB (inst and data) misses
system.cpu.itb.accesses                             0                       # Total TLB (inst and data) accesses
system.cpu.itb.stage2_mmu.stage2_tlb.instHits            0                       # ITB inst hits
system.cpu.itb.stage2_mmu.stage2_tlb.instMisses            0                       # ITB inst misses
system.cpu.itb.stage2_mmu.stage2_tlb.readHits            0                       # DTB read hits
system.cpu.itb.stage2_mmu.stage2_tlb.readMisses            0                       # DTB read misses
system.cpu.itb.stage2_mmu.stage2_tlb.writeHits            0                       # DTB write hits
system.cpu.itb.stage2_mmu.stage2_tlb.writeMisses            0                       # DTB write misses
system.cpu.itb.stage2_mmu.stage2_tlb.inserts            0                       # Number of times an entry is inserted into the TLB
system.cpu.itb.stage2_mmu.stage2_tlb.flushTlb            0                       # Number of times complete TLB was flushed
system.cpu.itb.stage2_mmu.stage2_tlb.flushTlbMva            0                       # Number of times TLB was flushed by MVA
system.cpu.itb.stage2_mmu.stage2_tlb.flushTlbMvaAsid            0                       # Number of times TLB was flushed by MVA & ASID
system.cpu.itb.stage2_mmu.stage2_tlb.flushTlbAsid            0                       # Number of times TLB was flushed by ASID
system.cpu.itb.stage2_mmu.stage2_tlb.flushedEntries            0                       # Number of entries that have been flushed from TLB
system.cpu.itb.stage2_mmu.stage2_tlb.alignFaults            0                       # Number of TLB faults due to alignment restrictions
system.cpu.itb.stage2_mmu.stage2_tlb.prefetchFaults            0                       # Number of TLB faults due to prefetch
system.cpu.itb.stage2_mmu.stage2_tlb.domainFaults            0                       # Number of TLB faults due to domain restrictions
system.cpu.itb.stage2_mmu.stage2_tlb.permsFaults            0                       # Number of TLB faults due to permissions restrictions
system.cpu.itb.stage2_mmu.stage2_tlb.readAccesses            0                       # DTB read accesses
system.cpu.itb.stage2_mmu.stage2_tlb.writeAccesses            0                       # DTB write accesses
system.cpu.itb.stage2_mmu.stage2_tlb.instAccesses            0                       # ITB inst accesses
system.cpu.itb.stage2_mmu.stage2_tlb.hits            0                       # Total TLB (inst and data) hits
system.cpu.itb.stage2_mmu.stage2_tlb.misses            0                       # Total TLB (inst and data) misses
system.cpu.itb.stage2_mmu.stage2_tlb.accesses            0                       # Total TLB (inst and data) accesses
system.cpu.itb.stage2_mmu.stage2_tlb.walker.walks            0                       # Table walker walks requested
system.cpu.itb.stage2_mmu.stage2_tlb.walker.requestOrigin_Requested::Data            0                       # Table walker requests started/completed, data/inst
system.cpu.itb.stage2_mmu.stage2_tlb.walker.requestOrigin_Requested::Inst            0                       # Table walker requests started/completed, data/inst
system.cpu.itb.stage2_mmu.stage2_tlb.walker.requestOrigin_Requested::total            0                       # Table walker requests started/completed, data/inst
system.cpu.itb.stage2_mmu.stage2_tlb.walker.requestOrigin_Completed::Data            0                       # Table walker requests started/completed, data/inst
system.cpu.itb.stage2_mmu.stage2_tlb.walker.requestOrigin_Completed::Inst            0                       # Table walker requests started/completed, data/inst
system.cpu.itb.stage2_mmu.stage2_tlb.walker.requestOrigin_Completed::total            0                       # Table walker requests started/completed, data/inst
system.cpu.itb.stage2_mmu.stage2_tlb.walker.requestOrigin::total            0                       # Table walker requests started/completed, data/inst
system.cpu.itb.stage2_mmu.stage2_tlb.walker.power_state.pwrStateResidencyTicks::UNDEFINED 516131116500                       # Cumulative time (in ticks) in various power states
system.cpu.itb.walker.walks                         0                       # Table walker walks requested
system.cpu.itb.walker.requestOrigin_Requested::Data            0                       # Table walker requests started/completed, data/inst
system.cpu.itb.walker.requestOrigin_Requested::Inst            0                       # Table walker requests started/completed, data/inst
system.cpu.itb.walker.requestOrigin_Requested::total            0                       # Table walker requests started/completed, data/inst
system.cpu.itb.walker.requestOrigin_Completed::Data            0                       # Table walker requests started/completed, data/inst
system.cpu.itb.walker.requestOrigin_Completed::Inst            0                       # Table walker requests started/completed, data/inst
system.cpu.itb.walker.requestOrigin_Completed::total            0                       # Table walker requests started/completed, data/inst
system.cpu.itb.walker.requestOrigin::total            0                       # Table walker requests started/completed, data/inst
system.cpu.itb.walker.power_state.pwrStateResidencyTicks::UNDEFINED 516131116500                       # Cumulative time (in ticks) in various power states
system.cpu.power_state.pwrStateResidencyTicks::ON 516131116500                       # Cumulative time (in ticks) in various power states
system.cpu.thread_0.numInsts                100000000                       # Number of Instructions committed
system.cpu.thread_0.numOps                  184608571                       # Number of Ops committed
system.cpu.thread_0.numMemRefs                      0                       # Number of Memory References
system.cpu_clk_domain.clock                       500                       # Clock period in ticks
system.cpu_voltage_domain.voltage                   1                       # Voltage in Volts
system.l2.demand_hits::.cpu.inst                   92                       # number of demand (read+write) hits
system.l2.demand_hits::.cpu.data                   69                       # number of demand (read+write) hits
system.l2.demand_hits::total                      161                       # number of demand (read+write) hits
system.l2.overall_hits::.cpu.inst                  92                       # number of overall hits
system.l2.overall_hits::.cpu.data                  69                       # number of overall hits
system.l2.overall_hits::total                     161                       # number of overall hits
system.l2.demand_misses::.cpu.inst                730                       # number of demand (read+write) misses
system.l2.demand_misses::.cpu.data            5287688                       # number of demand (read+write) misses
system.l2.demand_misses::total                5288418                       # number of demand (read+write) misses
system.l2.overall_misses::.cpu.inst               730                       # number of overall misses
system.l2.overall_misses::.cpu.data           5287688                       # number of overall misses
system.l2.overall_misses::total               5288418                       # number of overall misses
system.l2.demand_miss_latency::.cpu.inst     58247000                       # number of demand (read+write) miss cycles
system.l2.demand_miss_latency::.cpu.data 426034746500                       # number of demand (read+write) miss cycles
system.l2.demand_miss_latency::total     426092993500                       # number of demand (read+write) miss cycles
system.l2.overall_miss_latency::.cpu.inst     58247000                       # number of overall miss cycles
system.l2.overall_miss_latency::.cpu.data 426034746500                       # number of overall miss cycles
system.l2.overall_miss_latency::total    426092993500                       # number of overall miss cycles
system.l2.demand_accesses::.cpu.inst              822                       # number of demand (read+write) accesses
system.l2.demand_accesses::.cpu.data          5287757                       # number of demand (read+write) accesses
system.l2.demand_accesses::total              5288579                       # number of demand (read+write) accesses
system.l2.overall_accesses::.cpu.inst             822                       # number of overall (read+write) accesses
system.l2.overall_accesses::.cpu.data         5287757                       # number of overall (read+write) accesses
system.l2.overall_accesses::total             5288579                       # number of overall (read+write) accesses
system.l2.demand_miss_rate::.cpu.inst        0.888078                       # miss rate for demand accesses
system.l2.demand_miss_rate::.cpu.data        0.999987                       # miss rate for demand accesses
system.l2.demand_miss_rate::total            0.999970                       # miss rate for demand accesses
system.l2.overall_miss_rate::.cpu.inst       0.888078                       # miss rate for overall accesses
system.l2.overall_miss_rate::.cpu.data       0.999987                       # miss rate for overall accesses
system.l2.overall_miss_rate::total           0.999970                       # miss rate for overall accesses
system.l2.demand_avg_miss_latency::.cpu.inst 79790.410959                       # average overall miss latency
system.l2.demand_avg_miss_latency::.cpu.data 80571.082579                       # average overall miss latency
system.l2.demand_avg_miss_latency::total 80570.974817                       # average overall miss latency
system.l2.overall_avg_miss_latency::.cpu.inst 79790.410959                       # average overall miss latency
system.l2.overall_avg_miss_latency::.cpu.data 80571.082579                       # average overall miss latency
system.l2.overall_avg_miss_latency::total 80570.974817                       # average overall miss latency
system.l2.blocked_cycles::no_mshrs                  0                       # number of cycles access was blocked
system.l2.blocked_cycles::no_targets                0                       # number of cycles access was blocked
system.l2.blocked::no_mshrs                         0                       # number of cycles access was blocked
system.l2.blocked::no_targets                       0                       # number of cycles access was blocked
system.l2.avg_blocked_cycles::no_mshrs            nan                       # average number of cycles each access was blocked
system.l2.avg_blocked_cycles::no_targets          nan                       # average number of cycles each access was blocked
system.l2.writebacks::.writebacks             5270981                       # number of writebacks
system.l2.writebacks::total                   5270981                       # number of writebacks
system.l2.demand_mshr_hits::.cpu.inst               1                       # number of demand (read+write) MSHR hits
system.l2.demand_mshr_hits::.cpu.data              12                       # number of demand (read+write) MSHR hits
system.l2.demand_mshr_hits::total                  13                       # number of demand (read+write) MSHR hits
system.l2.overall_mshr_hits::.cpu.inst              1                       # number of overall MSHR hits
system.l2.overall_mshr_hits::.cpu.data             12                       # number of overall MSHR hits
system.l2.overall_mshr_hits::total                 13                       # number of overall MSHR hits
system.l2.demand_mshr_misses::.cpu.inst           729                       # number of demand (read+write) MSHR misses
system.l2.demand_mshr_misses::.cpu.data       5287676                       # number of demand (read+write) MSHR misses
system.l2.demand_mshr_misses::total           5288405                       # number of demand (read+write) MSHR misses
system.l2.overall_mshr_misses::.cpu.inst          729                       # number of overall MSHR misses
system.l2.overall_mshr_misses::.cpu.data      5287676                       # number of overall MSHR misses
system.l2.overall_mshr_misses::total          5288405                       # number of overall MSHR misses
system.l2.demand_mshr_miss_latency::.cpu.inst     50888500                       # number of demand (read+write) MSHR miss cycles
system.l2.demand_mshr_miss_latency::.cpu.data 373157156500                       # number of demand (read+write) MSHR miss cycles
system.l2.demand_mshr_miss_latency::total 373208045000                       # number of demand (read+write) MSHR miss cycles
system.l2.overall_mshr_miss_latency::.cpu.inst     50888500                       # number of overall MSHR miss cycles
system.l2.overall_mshr_miss_latency::.cpu.data 373157156500                       # number of overall MSHR miss cycles
system.l2.overall_mshr_miss_latency::total 373208045000                       # number of overall MSHR miss cycles
system.l2.demand_mshr_miss_rate::.cpu.inst     0.886861                       # mshr miss rate for demand accesses
system.l2.demand_mshr_miss_rate::.cpu.data     0.999985                       # mshr miss rate for demand accesses
system.l2.demand_mshr_miss_rate::total       0.999967                       # mshr miss rate for demand accesses
system.l2.overall_mshr_miss_rate::.cpu.inst     0.886861                       # mshr miss rate for overall accesses
system.l2.overall_mshr_miss_rate::.cpu.data     0.999985                       # mshr miss rate for overall accesses
system.l2.overall_mshr_miss_rate::total      0.999967                       # mshr miss rate for overall accesses
system.l2.demand_avg_mshr_miss_latency::.cpu.inst 69805.898491                       # average overall mshr miss latency
system.l2.demand_avg_mshr_miss_latency::.cpu.data 70571.108461                       # average overall mshr miss latency
system.l2.demand_avg_mshr_miss_latency::total 70571.002977                       # average overall mshr miss latency
system.l2.overall_avg_mshr_miss_latency::.cpu.inst 69805.898491                       # average overall mshr miss latency
system.l2.overall_avg_mshr_miss_latency::.cpu.data 70571.108461                       # average overall mshr miss latency
system.l2.overall_avg_mshr_miss_latency::total 70571.002977                       # average overall mshr miss latency
system.l2.replacements                        5272188                       # number of replacements
system.l2.WritebackDirty_hits::.writebacks      5286367                       # number of WritebackDirty hits
system.l2.WritebackDirty_hits::total          5286367                       # number of WritebackDirty hits
system.l2.WritebackDirty_accesses::.writebacks      5286367                       # number of WritebackDirty accesses(hits+misses)
system.l2.WritebackDirty_accesses::total      5286367                       # number of WritebackDirty accesses(hits+misses)
system.l2.WritebackClean_hits::.writebacks          345                       # number of WritebackClean hits
system.l2.WritebackClean_hits::total              345                       # number of WritebackClean hits
system.l2.WritebackClean_accesses::.writebacks          345                       # number of WritebackClean accesses(hits+misses)
system.l2.WritebackClean_accesses::total          345                       # number of WritebackClean accesses(hits+misses)
system.l2.ReadExReq_hits::.cpu.data                13                       # number of ReadExReq hits
system.l2.ReadExReq_hits::total                    13                       # number of ReadExReq hits
system.l2.ReadExReq_misses::.cpu.data         5287335                       # number of ReadExReq misses
system.l2.ReadExReq_misses::total             5287335                       # number of ReadExReq misses
system.l2.ReadExReq_miss_latency::.cpu.data 426005726500                       # number of ReadExReq miss cycles
system.l2.ReadExReq_miss_latency::total  426005726500                       # number of ReadExReq miss cycles
system.l2.ReadExReq_accesses::.cpu.data       5287348                       # number of ReadExReq accesses(hits+misses)
system.l2.ReadExReq_accesses::total           5287348                       # number of ReadExReq accesses(hits+misses)
system.l2.ReadExReq_miss_rate::.cpu.data     0.999998                       # miss rate for ReadExReq accesses
system.l2.ReadExReq_miss_rate::total         0.999998                       # miss rate for ReadExReq accesses
system.l2.ReadExReq_avg_miss_latency::.cpu.data 80570.973184                       # average ReadExReq miss latency
system.l2.ReadExReq_avg_miss_latency::total 80570.973184                       # average ReadExReq miss latency
system.l2.ReadExReq_mshr_misses::.cpu.data      5287335                       # number of ReadExReq MSHR misses
system.l2.ReadExReq_mshr_misses::total        5287335                       # number of ReadExReq MSHR misses
system.l2.ReadExReq_mshr_miss_latency::.cpu.data 373132376500                       # number of ReadExReq MSHR miss cycles
system.l2.ReadExReq_mshr_miss_latency::total 373132376500                       # number of ReadExReq MSHR miss cycles
system.l2.ReadExReq_mshr_miss_rate::.cpu.data     0.999998                       # mshr miss rate for ReadExReq accesses
system.l2.ReadExReq_mshr_miss_rate::total     0.999998                       # mshr miss rate for ReadExReq accesses
system.l2.ReadExReq_avg_mshr_miss_latency::.cpu.data 70570.973184                       # average ReadExReq mshr miss latency
system.l2.ReadExReq_avg_mshr_miss_latency::total 70570.973184                       # average ReadExReq mshr miss latency
system.l2.ReadCleanReq_hits::.cpu.inst             92                       # number of ReadCleanReq hits
system.l2.ReadCleanReq_hits::total                 92                       # number of ReadCleanReq hits
system.l2.ReadCleanReq_misses::.cpu.inst          730                       # number of ReadCleanReq misses
system.l2.ReadCleanReq_misses::total              730                       # number of ReadCleanReq misses
system.l2.ReadCleanReq_miss_latency::.cpu.inst     58247000                       # number of ReadCleanReq miss cycles
system.l2.ReadCleanReq_miss_latency::total     58247000                       # number of ReadCleanReq miss cycles
system.l2.ReadCleanReq_accesses::.cpu.inst          822                       # number of ReadCleanReq accesses(hits+misses)
system.l2.ReadCleanReq_accesses::total            822                       # number of ReadCleanReq accesses(hits+misses)
system.l2.ReadCleanReq_miss_rate::.cpu.inst     0.888078                       # miss rate for ReadCleanReq accesses
system.l2.ReadCleanReq_miss_rate::total      0.888078                       # miss rate for ReadCleanReq accesses
system.l2.ReadCleanReq_avg_miss_latency::.cpu.inst 79790.410959                       # average ReadCleanReq miss latency
system.l2.ReadCleanReq_avg_miss_latency::total 79790.410959                       # average ReadCleanReq miss latency
system.l2.ReadCleanReq_mshr_hits::.cpu.inst            1                       # number of ReadCleanReq MSHR hits
system.l2.ReadCleanReq_mshr_hits::total             1                       # number of ReadCleanReq MSHR hits
system.l2.ReadCleanReq_mshr_misses::.cpu.inst          729                       # number of ReadCleanReq MSHR misses
system.l2.ReadCleanReq_mshr_misses::total          729                       # number of ReadCleanReq MSHR misses
system.l2.ReadCleanReq_mshr_miss_latency::.cpu.inst     50888500                       # number of ReadCleanReq MSHR miss cycles
system.l2.ReadCleanReq_mshr_miss_latency::total     50888500                       # number of ReadCleanReq MSHR miss cycles
system.l2.ReadCleanReq_mshr_miss_rate::.cpu.inst     0.886861                       # mshr miss rate for ReadCleanReq accesses
system.l2.ReadCleanReq_mshr_miss_rate::total     0.886861                       # mshr miss rate for ReadCleanReq accesses
system.l2.ReadCleanReq_avg_mshr_miss_latency::.cpu.inst 69805.898491                       # average ReadCleanReq mshr miss latency
system.l2.ReadCleanReq_avg_mshr_miss_latency::total 69805.898491                       # average ReadCleanReq mshr miss latency
system.l2.ReadSharedReq_hits::.cpu.data            56                       # number of ReadSharedReq hits
system.l2.ReadSharedReq_hits::total                56                       # number of ReadSharedReq hits
system.l2.ReadSharedReq_misses::.cpu.data          353                       # number of ReadSharedReq misses
system.l2.ReadSharedReq_misses::total             353                       # number of ReadSharedReq misses
system.l2.ReadSharedReq_miss_latency::.cpu.data     29020000                       # number of ReadSharedReq miss cycles
system.l2.ReadSharedReq_miss_latency::total     29020000                       # number of ReadSharedReq miss cycles
system.l2.ReadSharedReq_accesses::.cpu.data          409                       # number of ReadSharedReq accesses(hits+misses)
system.l2.ReadSharedReq_accesses::total           409                       # number of ReadSharedReq accesses(hits+misses)
system.l2.ReadSharedReq_miss_rate::.cpu.data     0.863081                       # miss rate for ReadSharedReq accesses
system.l2.ReadSharedReq_miss_rate::total     0.863081                       # miss rate for ReadSharedReq accesses
system.l2.ReadSharedReq_avg_miss_latency::.cpu.data 82209.631728                       # average ReadSharedReq miss latency
system.l2.ReadSharedReq_avg_miss_latency::total 82209.631728                       # average ReadSharedReq miss latency
system.l2.ReadSharedReq_mshr_hits::.cpu.data           12                       # number of ReadSharedReq MSHR hits
system.l2.ReadSharedReq_mshr_hits::total           12                       # number of ReadSharedReq MSHR hits
system.l2.ReadSharedReq_mshr_misses::.cpu.data          341                       # number of ReadSharedReq MSHR misses
system.l2.ReadSharedReq_mshr_misses::total          341                       # number of ReadSharedReq MSHR misses
system.l2.ReadSharedReq_mshr_miss_latency::.cpu.data     24780000                       # number of ReadSharedReq MSHR miss cycles
system.l2.ReadSharedReq_mshr_miss_latency::total     24780000                       # number of ReadSharedReq MSHR miss cycles
system.l2.ReadSharedReq_mshr_miss_rate::.cpu.data     0.833741                       # mshr miss rate for ReadSharedReq accesses
system.l2.ReadSharedReq_mshr_miss_rate::total     0.833741                       # mshr miss rate for ReadSharedReq accesses
system.l2.ReadSharedReq_avg_mshr_miss_latency::.cpu.data 72668.621701                       # average ReadSharedReq mshr miss latency
system.l2.ReadSharedReq_avg_mshr_miss_latency::total 72668.621701                       # average ReadSharedReq mshr miss latency
system.l2.power_state.pwrStateResidencyTicks::UNDEFINED 516131116500                       # Cumulative time (in ticks) in various power states
system.l2.tags.tagsinuse                 16289.633381                       # Cycle average of tags in use
system.l2.tags.total_refs                    10575552                       # Total number of references to valid blocks.
system.l2.tags.sampled_refs                   5288572                       # Sample count of references to valid blocks.
system.l2.tags.avg_refs                      1.999699                       # Average number of references to valid blocks.
system.l2.tags.warmup_cycle                     77000                       # Cycle when the warmup percentage was hit.
system.l2.tags.occ_blocks::.writebacks       0.460042                       # Average occupied blocks per requestor
system.l2.tags.occ_blocks::.cpu.inst         4.120858                       # Average occupied blocks per requestor
system.l2.tags.occ_blocks::.cpu.data     16285.052482                       # Average occupied blocks per requestor
system.l2.tags.occ_percent::.writebacks      0.000028                       # Average percentage of cache occupancy
system.l2.tags.occ_percent::.cpu.inst        0.000252                       # Average percentage of cache occupancy
system.l2.tags.occ_percent::.cpu.data        0.993961                       # Average percentage of cache occupancy
system.l2.tags.occ_percent::total            0.994240                       # Average percentage of cache occupancy
system.l2.tags.occ_task_id_blocks::1024         16384                       # Occupied blocks per task id
system.l2.tags.age_task_id_blocks_1024::0          105                       # Occupied blocks per task id
system.l2.tags.age_task_id_blocks_1024::1          924                       # Occupied blocks per task id
system.l2.tags.age_task_id_blocks_1024::2         9265                       # Occupied blocks per task id
system.l2.tags.age_task_id_blocks_1024::3         6090                       # Occupied blocks per task id
system.l2.tags.occ_task_id_percent::1024            1                       # Percentage of cache occupancy per task id
system.l2.tags.tag_accesses                  89893092                       # Number of tag accesses
system.l2.tags.data_accesses                 89893092                       # Number of data accesses
system.l2.tags.power_state.pwrStateResidencyTicks::UNDEFINED 516131116500                       # Cumulative time (in ticks) in various power states
system.mem_ctrls.avgPriority_.writebacks::samples   5270981.00                       # Average QoS priority value for accepted requests
system.mem_ctrls.avgPriority_.cpu.inst::samples       729.00                       # Average QoS priority value for accepted requests
system.mem_ctrls.avgPriority_.cpu.data::samples   5287676.00                       # Average QoS priority value for accepted requests
system.mem_ctrls.priorityMinLatency      0.000000018750                       # per QoS priority minimum request to response latency (s)
system.mem_ctrls.priorityMaxLatency      0.000370634250                       # per QoS priority maximum request to response latency (s)
system.mem_ctrls.numReadWriteTurnArounds       329378                       # Number of turnarounds from READ to WRITE
system.mem_ctrls.numWriteReadTurnArounds       329378                       # Number of turnarounds from WRITE to READ
system.mem_ctrls.numStayReadState            15639217                       # Number of times bus staying in READ state
system.mem_ctrls.numStayWriteState            4952196                       # Number of times bus staying in WRITE state
system.mem_ctrls.readReqs                     5288405                       # Number of read requests accepted
system.mem_ctrls.writeReqs                    5270981                       # Number of write requests accepted
system.mem_ctrls.readBursts                   5288405                       # Number of controller read bursts, including those serviced by the write queue
system.mem_ctrls.writeBursts                  5270981                       # Number of controller write bursts, including those merged in the write queue
system.mem_ctrls.servicedByWrQ                      0                       # Number of controller read bursts serviced by the write queue
system.mem_ctrls.mergedWrBursts                     0                       # Number of controller write bursts merged with an existing one
system.mem_ctrls.neitherReadNorWriteReqs            0                       # Number of requests that are neither read nor write
system.mem_ctrls.avgRdQLen                       1.00                       # Average read queue length when enqueuing
system.mem_ctrls.avgWrQLen                      25.91                       # Average write queue length when enqueuing
system.mem_ctrls.numRdRetry                         0                       # Number of times read queue was full causing retry
system.mem_ctrls.numWrRetry                         0                       # Number of times write queue was full causing retry
system.mem_ctrls.readPktSize::0                     0                       # Read request sizes (log2)
system.mem_ctrls.readPktSize::1                     0                       # Read request sizes (log2)
system.mem_ctrls.readPktSize::2                     0                       # Read request sizes (log2)
system.mem_ctrls.readPktSize::3                     0                       # Read request sizes (log2)
system.mem_ctrls.readPktSize::4                     0                       # Read request sizes (log2)
system.mem_ctrls.readPktSize::5                     0                       # Read request sizes (log2)
system.mem_ctrls.readPktSize::6               5288405                       # Read request sizes (log2)
system.mem_ctrls.writePktSize::0                    0                       # Write request sizes (log2)
[...]
system.mem_ctrls.dram.bw_write::.writebacks    653599005                       # Write bandwidth from this memory (bytes/s)
system.mem_ctrls.dram.bw_write::total       653599005                       # Write bandwidth from this memory (bytes/s)
system.mem_ctrls.dram.bw_total::.writebacks    653599005                       # Total bandwidth to/from this memory (bytes/s)
system.mem_ctrls.dram.bw_total::.cpu.inst        90396                       # Total bandwidth to/from this memory (bytes/s)
system.mem_ctrls.dram.bw_total::.cpu.data    655669176                       # Total bandwidth to/from this memory (bytes/s)
system.mem_ctrls.dram.bw_total::total      1309358577                       # Total bandwidth to/from this memory (bytes/s)
system.mem_ctrls.dram.readBursts              5288405                       # Number of DRAM read bursts
system.mem_ctrls.dram.writeBursts             5270951                       # Number of DRAM write bursts
system.mem_ctrls.dram.perBankRdBursts::0       330576                       # Per bank write bursts
system.mem_ctrls.dram.perBankRdBursts::1       330460                       # Per bank write bursts
system.mem_ctrls.dram.perBankRdBursts::2       330417                       # Per bank write bursts
system.mem_ctrls.dram.perBankRdBursts::3       330410                       # Per bank write bursts
system.mem_ctrls.dram.perBankRdBursts::4       330442                       # Per bank write bursts
system.mem_ctrls.dram.perBankRdBursts::5       330582                       # Per bank write bursts
system.mem_ctrls.dram.perBankRdBursts::6       330618                       # Per bank write bursts
system.mem_ctrls.dram.perBankRdBursts::7       330505                       # Per bank write bursts
system.mem_ctrls.dram.perBankRdBursts::8       330528                       # Per bank write bursts
system.mem_ctrls.dram.perBankRdBursts::9       330460                       # Per bank write bursts
system.mem_ctrls.dram.perBankRdBursts::10       330458                       # Per bank write bursts
system.mem_ctrls.dram.perBankRdBursts::11       330456                       # Per bank write bursts
system.mem_ctrls.dram.perBankRdBursts::12       330627                       # Per bank write bursts
system.mem_ctrls.dram.perBankRdBursts::13       330547                       # Per bank write bursts
system.mem_ctrls.dram.perBankRdBursts::14       330700                       # Per bank write bursts
system.mem_ctrls.dram.perBankRdBursts::15       330619                       # Per bank write bursts
system.mem_ctrls.dram.perBankWrBursts::0       329523                       # Per bank write bursts
system.mem_ctrls.dram.perBankWrBursts::1       329349                       # Per bank write bursts
system.mem_ctrls.dram.perBankWrBursts::2       329344                       # Per bank write bursts
system.mem_ctrls.dram.perBankWrBursts::3       329344                       # Per bank write bursts
system.mem_ctrls.dram.perBankWrBursts::4       329379                       # Per bank write bursts
system.mem_ctrls.dram.perBankWrBursts::5       329470                       # Per bank write bursts
system.mem_ctrls.dram.perBankWrBursts::6       329475                       # Per bank write bursts
system.mem_ctrls.dram.perBankWrBursts::7       329456                       # Per bank write bursts
system.mem_ctrls.dram.perBankWrBursts::8       329441                       # Per bank write bursts
system.mem_ctrls.dram.perBankWrBursts::9       329288                       # Per bank write bursts
system.mem_ctrls.dram.perBankWrBursts::10       329341                       # Per bank write bursts
system.mem_ctrls.dram.perBankWrBursts::11       329384                       # Per bank write bursts
system.mem_ctrls.dram.perBankWrBursts::12       329529                       # Per bank write bursts
system.mem_ctrls.dram.perBankWrBursts::13       329480                       # Per bank write bursts
system.mem_ctrls.dram.perBankWrBursts::14       329604                       # Per bank write bursts
system.mem_ctrls.dram.perBankWrBursts::15       329544                       # Per bank write bursts
system.mem_ctrls.dram.totQLat             58473491500                       # Total ticks spent queuing
system.mem_ctrls.dram.totBusLat           26442025000                       # Total ticks spent in databus transfers
system.mem_ctrls.dram.totMemAccLat       157631085250                       # Total ticks spent from burst creation until serviced by the DRAM
system.mem_ctrls.dram.avgQLat                11056.92                       # Average queueing delay per DRAM burst
system.mem_ctrls.dram.avgBusLat               5000.00                       # Average bus latency per DRAM burst
system.mem_ctrls.dram.avgMemAccLat           29806.92                       # Average memory access latency per DRAM burst
system.mem_ctrls.dram.readRowHits             4856686                       # Number of row buffer hits during reads
system.mem_ctrls.dram.writeRowHits            4895254                       # Number of row buffer hits during writes
system.mem_ctrls.dram.readRowHitRate            91.84                       # Row buffer hit rate for reads
system.mem_ctrls.dram.writeRowHitRate           92.87                       # Row buffer hit rate for writes
system.mem_ctrls.dram.bytesPerActivate::samples       807415                       # Bytes accessed per row activation
system.mem_ctrls.dram.bytesPerActivate::mean   836.989593                       # Bytes accessed per row activation
system.mem_ctrls.dram.bytesPerActivate::gmean   710.561261                       # Bytes accessed per row activation
system.mem_ctrls.dram.bytesPerActivate::stdev   313.600714                       # Bytes accessed per row activation
system.mem_ctrls.dram.bytesPerActivate::0-127        33516      4.15%      4.15% # Bytes accessed per row activation
system.mem_ctrls.dram.bytesPerActivate::128-255        44637      5.53%      9.68% # Bytes accessed per row activation
system.mem_ctrls.dram.bytesPerActivate::256-383        35432      4.39%     14.07% # Bytes accessed per row activation
system.mem_ctrls.dram.bytesPerActivate::384-511        28660      3.55%     17.62% # Bytes accessed per row activation
system.mem_ctrls.dram.bytesPerActivate::512-639        27005      3.34%     20.96% # Bytes accessed per row activation
system.mem_ctrls.dram.bytesPerActivate::640-767        32060      3.97%     24.93% # Bytes accessed per row activation
system.mem_ctrls.dram.bytesPerActivate::768-895        29178      3.61%     28.55% # Bytes accessed per row activation
system.mem_ctrls.dram.bytesPerActivate::896-1023        50830      6.30%     34.84% # Bytes accessed per row activation
system.mem_ctrls.dram.bytesPerActivate::1024-1151       526097     65.16%    100.00% # Bytes accessed per row activation
system.mem_ctrls.dram.bytesPerActivate::total       807415                       # Bytes accessed per row activation
system.mem_ctrls.dram.bytesRead             338457920                       # Total number of bytes read from DRAM
system.mem_ctrls.dram.bytesWritten          337340864                       # Total number of bytes written to DRAM
system.mem_ctrls.dram.avgRdBW              655.759572                       # Average DRAM read bandwidth in MiBytes/s
system.mem_ctrls.dram.avgWrBW              653.595285                       # Average DRAM write bandwidth in MiBytes/s
system.mem_ctrls.dram.peakBW                 12800.00                       # Theoretical peak bandwidth in MiByte/s
system.mem_ctrls.dram.busUtil                   10.23                       # Data bus utilization in percentage
system.mem_ctrls.dram.busUtilRead                5.12                       # Data bus utilization in percentage for reads
system.mem_ctrls.dram.busUtilWrite               5.11                       # Data bus utilization in percentage for writes
system.mem_ctrls.dram.pageHitRate               92.35                       # Row buffer hit rate, read and write combined
system.mem_ctrls.dram.power_state.pwrStateResidencyTicks::UNDEFINED 516131116500                       # Cumulative time (in ticks) in various power states
system.mem_ctrls.dram.rank0.actEnergy      2882960640                       # Energy for activate commands per rank (pJ)
system.mem_ctrls.dram.rank0.preEnergy      1532329920                       # Energy for precharge commands per rank (pJ)
system.mem_ctrls.dram.rank0.readEnergy    18878231400                       # Energy for read commands per rank (pJ)
system.mem_ctrls.dram.rank0.writeEnergy   13756474800                       # Energy for write commands per rank (pJ)
system.mem_ctrls.dram.rank0.refreshEnergy 40742641680.000008                       # Energy for refresh commands per rank (pJ)
system.mem_ctrls.dram.rank0.actBackEnergy 123678570360                       # Energy for active background per rank (pJ)
system.mem_ctrls.dram.rank0.preBackEnergy  94043974080                       # Energy for precharge background per rank (pJ)
system.mem_ctrls.dram.rank0.actPowerDownEnergy            0                       # Energy for active power-down per rank (pJ)
system.mem_ctrls.dram.rank0.prePowerDownEnergy            0                       # Energy for precharge power-down per rank (pJ)
system.mem_ctrls.dram.rank0.selfRefreshEnergy            0                       # Energy for self refresh per rank (pJ)
system.mem_ctrls.dram.rank0.totalEnergy  295515182880                       # Total energy per rank (pJ)
system.mem_ctrls.dram.rank0.averagePower   572.558355                       # Core power per rank (mW)
system.mem_ctrls.dram.rank0.totalIdleTime            0                       # Total Idle time Per DRAM Rank
system.mem_ctrls.dram.rank0.pwrStateTime::IDLE 240656449000                       # Time in different power states
system.mem_ctrls.dram.rank0.pwrStateTime::REF  17234620000                       # Time in different power states
system.mem_ctrls.dram.rank0.pwrStateTime::SREF            0                       # Time in different power states
system.mem_ctrls.dram.rank0.pwrStateTime::PRE_PDN            0                       # Time in different power states
system.mem_ctrls.dram.rank0.pwrStateTime::ACT 258240047500                       # Time in different power states
system.mem_ctrls.dram.rank0.pwrStateTime::ACT_PDN            0                       # Time in different power states
system.mem_ctrls.dram.rank1.actEnergy      2881989600                       # Energy for activate commands per rank (pJ)
system.mem_ctrls.dram.rank1.preEnergy      1531810005                       # Energy for precharge commands per rank (pJ)
system.mem_ctrls.dram.rank1.readEnergy    18880980300                       # Energy for read commands per rank (pJ)
system.mem_ctrls.dram.rank1.writeEnergy   13757889420                       # Energy for write commands per rank (pJ)
system.mem_ctrls.dram.rank1.refreshEnergy 40742641680.000008                       # Energy for refresh commands per rank (pJ)
system.mem_ctrls.dram.rank1.actBackEnergy 123664981560                       # Energy for active background per rank (pJ)
system.mem_ctrls.dram.rank1.preBackEnergy  94055417280                       # Energy for precharge background per rank (pJ)
system.mem_ctrls.dram.rank1.actPowerDownEnergy            0                       # Energy for active power-down per rank (pJ)
system.mem_ctrls.dram.rank1.prePowerDownEnergy            0                       # Energy for precharge power-down per rank (pJ)
system.mem_ctrls.dram.rank1.selfRefreshEnergy            0                       # Energy for self refresh per rank (pJ)
system.mem_ctrls.dram.rank1.totalEnergy  295515709845                       # Total energy per rank (pJ)
system.mem_ctrls.dram.rank1.averagePower   572.559376                       # Core power per rank (mW)
system.mem_ctrls.dram.rank1.totalIdleTime            0                       # Total Idle time Per DRAM Rank
system.mem_ctrls.dram.rank1.pwrStateTime::IDLE 240686618000                       # Time in different power states
system.mem_ctrls.dram.rank1.pwrStateTime::REF  17234620000                       # Time in different power states
system.mem_ctrls.dram.rank1.pwrStateTime::SREF            0                       # Time in different power states
system.mem_ctrls.dram.rank1.pwrStateTime::PRE_PDN            0                       # Time in different power states
system.mem_ctrls.dram.rank1.pwrStateTime::ACT 258209878500                       # Time in different power states
system.mem_ctrls.dram.rank1.pwrStateTime::ACT_PDN            0                       # Time in different power states
system.mem_ctrls.power_state.pwrStateResidencyTicks::UNDEFINED 516131116500                       # Cumulative time (in ticks) in various power states
system.membus.trans_dist::ReadResp               1070                       # Transaction distribution
system.membus.trans_dist::WritebackDirty      5270981                       # Transaction distribution
system.membus.trans_dist::CleanEvict              560                       # Transaction distribution
system.membus.trans_dist::ReadExReq           5287335                       # Transaction distribution
system.membus.trans_dist::ReadExResp          5287335                       # Transaction distribution
system.membus.trans_dist::ReadSharedReq          1070                       # Transaction distribution
system.membus.pkt_count_system.l2.mem_side_port::system.mem_ctrls.port     15848351                       # Packet count per connected requestor and responder (bytes)
system.membus.pkt_count::total               15848351                       # Packet count per connected requestor and responder (bytes)
system.membus.pkt_size_system.l2.mem_side_port::system.mem_ctrls.port    675800704                       # Cumulative packet size per connected requestor and responder (bytes)
system.membus.pkt_size::total               675800704                       # Cumulative packet size per connected requestor and responder (bytes)
system.membus.snoops                                0                       # Total snoops (count)
system.membus.snoopTraffic                          0                       # Total snoop traffic (bytes)
system.membus.snoop_fanout::samples           5288405                       # Request fanout histogram
system.membus.snoop_fanout::mean                    0                       # Request fanout histogram
system.membus.snoop_fanout::stdev                   0                       # Request fanout histogram
system.membus.snoop_fanout::underflows              0      0.00%      0.00% # Request fanout histogram
system.membus.snoop_fanout::0                 5288405    100.00%    100.00% # Request fanout histogram
system.membus.snoop_fanout::1                       0      0.00%    100.00% # Request fanout histogram
system.membus.snoop_fanout::overflows               0      0.00%    100.00% # Request fanout histogram
system.membus.snoop_fanout::min_value               0                       # Request fanout histogram
system.membus.snoop_fanout::max_value               0                       # Request fanout histogram
system.membus.snoop_fanout::total             5288405                       # Request fanout histogram
system.membus.power_state.pwrStateResidencyTicks::UNDEFINED 516131116500                       # Cumulative time (in ticks) in various power states
system.membus.reqLayer0.occupancy         31666568500                       # Layer occupancy (ticks)
system.membus.reqLayer0.utilization               6.1                       # Layer utilization (%)
system.membus.respLayer1.occupancy        27815762500                       # Layer occupancy (ticks)
system.membus.respLayer1.utilization              5.4                       # Layer utilization (%)
system.tol2bus.trans_dist::ReadResp              1231                       # Transaction distribution
system.tol2bus.trans_dist::WritebackDirty     10557348                       # Transaction distribution
system.tol2bus.trans_dist::WritebackClean          356                       # Transaction distribution
system.tol2bus.trans_dist::CleanEvict            1573                       # Transaction distribution
system.tol2bus.trans_dist::ReadExReq          5287348                       # Transaction distribution
system.tol2bus.trans_dist::ReadExResp         5287348                       # Transaction distribution
system.tol2bus.trans_dist::ReadCleanReq           822                       # Transaction distribution
system.tol2bus.trans_dist::ReadSharedReq          409                       # Transaction distribution
system.tol2bus.pkt_count_system.cpu.icache.mem_side_port::system.l2.cpu_side_port         2000                       # Packet count per connected requestor and responder (bytes)
system.tol2bus.pkt_count_system.cpu.dcache.mem_side_port::system.l2.cpu_side_port     15862247                       # Packet count per connected requestor and responder (bytes)
system.tol2bus.pkt_count::total              15864247                       # Packet count per connected requestor and responder (bytes)
system.tol2bus.pkt_size_system.cpu.icache.mem_side_port::system.l2.cpu_side_port        75392                       # Cumulative packet size per connected requestor and responder (bytes)
system.tol2bus.pkt_size_system.cpu.dcache.mem_side_port::system.l2.cpu_side_port    676743936                       # Cumulative packet size per connected requestor and responder (bytes)
system.tol2bus.pkt_size::total              676819328                       # Cumulative packet size per connected requestor and responder (bytes)
system.tol2bus.snoops                         5272188                       # Total snoops (count)
system.tol2bus.snoopTraffic                 337342784                       # Total snoop traffic (bytes)
system.tol2bus.snoop_fanout::samples         10560767                       # Request fanout histogram
system.tol2bus.snoop_fanout::mean            0.000071                       # Request fanout histogram
system.tol2bus.snoop_fanout::stdev           0.008427                       # Request fanout histogram
system.tol2bus.snoop_fanout::underflows             0      0.00%      0.00% # Request fanout histogram
system.tol2bus.snoop_fanout::0               10560017     99.99%     99.99% # Request fanout histogram
system.tol2bus.snoop_fanout::1                    750      0.01%    100.00% # Request fanout histogram
system.tol2bus.snoop_fanout::2                      0      0.00%    100.00% # Request fanout histogram
system.tol2bus.snoop_fanout::overflows              0      0.00%    100.00% # Request fanout histogram
system.tol2bus.snoop_fanout::min_value              0                       # Request fanout histogram
system.tol2bus.snoop_fanout::max_value              1                       # Request fanout histogram
system.tol2bus.snoop_fanout::total           10560767                       # Request fanout histogram
system.tol2bus.power_state.pwrStateResidencyTicks::UNDEFINED 516131116500                       # Cumulative time (in ticks) in various power states
system.tol2bus.reqLayer0.occupancy        10574557000                       # Layer occupancy (ticks)
system.tol2bus.reqLayer0.utilization              2.0                       # Layer utilization (%)
system.tol2bus.respLayer0.occupancy           1233499                       # Layer occupancy (ticks)
system.tol2bus.respLayer0.utilization             0.0                       # Layer utilization (%)
system.tol2bus.respLayer1.occupancy        7931641488                       # Layer occupancy (ticks)
system.tol2bus.respLayer1.utilization             1.5                       # Layer utilization (%)
system.voltage_domain.voltage                       1                       # Voltage in Volts

---------- End Simulation Statistics   ----------
