
---------- Begin Simulation Statistics ----------
final_tick                                64917394500                       # Number of ticks from beginning of simulation (restored from checkpoints and never reset)
host_inst_rate                                 160219                       # Simulator instruction rate (inst/s)
host_mem_usage                                 676540                       # Number of bytes of host memory used
host_op_rate                                   175330                       # Simulator op (including micro ops) rate (op/s)
host_seconds                                   624.15                       # Real time elapsed on the host
host_tick_rate                              104009765                       # Simulator tick rate (ticks/s)
sim_freq                                 1000000000000                       # Frequency of simulated ticks
sim_insts                                   100000000                       # Number of instructions simulated
sim_ops                                     109431867                       # Number of ops (including micro ops) simulated
sim_seconds                                  0.064917                       # Number of seconds simulated
sim_ticks                                 64917394500                       # Number of ticks simulated
system.cpu.committedInsts                   100000000                       # Number of instructions committed
system.cpu.committedOps                     109431867                       # Number of ops (including micro ops) committed
system.cpu.cpi                               1.298348                       # CPI: cycles per instruction
system.cpu.discardedOps                        691651                       # Number of ops (including micro ops) which were discarded before commit
system.cpu.idleCycles                        13338668                       # Total number of cycles that the object has spent stopped
system.cpu.ipc                               0.770210                       # IPC: instructions per cycle
system.cpu.numCycles                        129834789                       # number of cpu cycles simulated
system.cpu.numFetchSuspends                         0                       # Number of times Execute suspended instruction fetching
system.cpu.numWorkItemsCompleted                    0                       # number of work items this cpu completed
system.cpu.numWorkItemsStarted                      0                       # number of work items this cpu started
system.cpu.op_class_0::No_OpClass                   0      0.00%      0.00% # Class of committed instruction
system.cpu.op_class_0::IntAlu                72954855     66.67%     66.67% # Class of committed instruction
system.cpu.op_class_0::IntMult                 568365      0.52%     67.19% # Class of committed instruction
system.cpu.op_class_0::IntDiv                       0      0.00%     67.19% # Class of committed instruction
system.cpu.op_class_0::FloatAdd                     0      0.00%     67.19% # Class of committed instruction
system.cpu.op_class_0::FloatCmp                     0      0.00%     67.19% # Class of committed instruction
system.cpu.op_class_0::FloatCvt                     0      0.00%     67.19% # Class of committed instruction
system.cpu.op_class_0::FloatMult                    0      0.00%     67.19% # Class of committed instruction
system.cpu.op_class_0::FloatMultAcc                 0      0.00%     67.19% # Class of committed instruction
system.cpu.op_class_0::FloatDiv                     0      0.00%     67.19% # Class of committed instruction
system.cpu.op_class_0::FloatMisc                    0      0.00%     67.19% # Class of committed instruction
system.cpu.op_class_0::FloatSqrt                    0      0.00%     67.19% # Class of committed instruction
system.cpu.op_class_0::SimdAdd                 241252      0.22%     67.41% # Class of committed instruction
system.cpu.op_class_0::SimdAddAcc                   0      0.00%     67.41% # Class of committed instruction
system.cpu.op_class_0::SimdAlu                 154720      0.14%     67.55% # Class of committed instruction
system.cpu.op_class_0::SimdCmp                 120626      0.11%     67.66% # Class of committed instruction
system.cpu.op_class_0::SimdCvt                      0      0.00%     67.66% # Class of committed instruction
system.cpu.op_class_0::SimdMisc                 44544      0.04%     67.70% # Class of committed instruction
system.cpu.op_class_0::SimdMult                     0      0.00%     67.70% # Class of committed instruction
system.cpu.op_class_0::SimdMultAcc                  0      0.00%     67.70% # Class of committed instruction
system.cpu.op_class_0::SimdShift                    0      0.00%     67.70% # Class of committed instruction
system.cpu.op_class_0::SimdShiftAcc                 0      0.00%     67.70% # Class of committed instruction
system.cpu.op_class_0::SimdDiv                      0      0.00%     67.70% # Class of committed instruction
system.cpu.op_class_0::SimdSqrt                     0      0.00%     67.70% # Class of committed instruction
system.cpu.op_class_0::SimdFloatAdd                 0      0.00%     67.70% # Class of committed instruction
system.cpu.op_class_0::SimdFloatAlu                 0      0.00%     67.70% # Class of committed instruction
system.cpu.op_class_0::SimdFloatCmp                 0      0.00%     67.70% # Class of committed instruction
system.cpu.op_class_0::SimdFloatCvt                 0      0.00%     67.70% # Class of committed instruction
system.cpu.op_class_0::SimdFloatDiv                 0      0.00%     67.70% # Class of committed instruction
system.cpu.op_class_0::SimdFloatMisc           166465      0.15%     67.85% # Class of committed instruction
system.cpu.op_class_0::SimdFloatMult                0      0.00%     67.85% # Class of committed instruction
system.cpu.op_class_0::SimdFloatMultAcc             0      0.00%     67.85% # Class of committed instruction
system.cpu.op_class_0::SimdFloatSqrt                0      0.00%     67.85% # Class of committed instruction
system.cpu.op_class_0::SimdReduceAdd                0      0.00%     67.85% # Class of committed instruction
system.cpu.op_class_0::SimdReduceAlu                0      0.00%     67.85% # Class of committed instruction
system.cpu.op_class_0::SimdReduceCmp                0      0.00%     67.85% # Class of committed instruction
system.cpu.op_class_0::SimdFloatReduceAdd            0      0.00%     67.85% # Class of committed instruction
system.cpu.op_class_0::SimdFloatReduceCmp            0      0.00%     67.85% # Class of committed instruction
system.cpu.op_class_0::SimdAes                      0      0.00%     67.85% # Class of committed instruction
system.cpu.op_class_0::SimdAesMix                   0      0.00%     67.85% # Class of committed instruction
system.cpu.op_class_0::SimdSha1Hash                 0      0.00%     67.85% # Class of committed instruction
system.cpu.op_class_0::SimdSha1Hash2                0      0.00%     67.85% # Class of committed instruction
system.cpu.op_class_0::SimdSha256Hash               0      0.00%     67.85% # Class of committed instruction
system.cpu.op_class_0::SimdSha256Hash2              0      0.00%     67.85% # Class of committed instruction
system.cpu.op_class_0::SimdShaSigma2                0      0.00%     67.85% # Class of committed instruction
system.cpu.op_class_0::SimdShaSigma3                0      0.00%     67.85% # Class of committed instruction
system.cpu.op_class_0::SimdPredAlu                  0      0.00%     67.85% # Class of committed instruction
system.cpu.op_class_0::MemRead               20646356     18.87%     86.72% # Class of committed instruction
system.cpu.op_class_0::MemWrite              14534684     13.28%    100.00% # Class of committed instruction
system.cpu.op_class_0::FloatMemRead                 0      0.00%    100.00% # Class of committed instruction
system.cpu.op_class_0::FloatMemWrite                0      0.00%    100.00% # Class of committed instruction
system.cpu.op_class_0::IprAccess                    0      0.00%    100.00% # Class of committed instruction
system.cpu.op_class_0::InstPrefetch                 0      0.00%    100.00% # Class of committed instruction
system.cpu.op_class_0::total                109431867                       # Class of committed instruction
system.cpu.tickCycles                       116496121                       # Number of cycles that the object actually ticked
system.cpu.workload.numSyscalls                    86                       # Number of system calls
system.membus.snoop_filter.hit_multi_requests            0                       # Number of requests hitting in the snoop filter with multiple (>1) holders of the requested data.
system.membus.snoop_filter.hit_multi_snoops            0                       # Number of snoops hitting in the snoop filter with multiple (>1) holders of the requested data.
system.membus.snoop_filter.hit_single_requests            0                       # Number of requests hitting in the snoop filter with a single holder of the requested data.
system.membus.snoop_filter.hit_single_snoops            0                       # Number of snoops hitting in the snoop filter with a single holder of the requested data.
system.membus.snoop_filter.tot_requests         39554                       # Total number of requests made to the snoop filter.
system.membus.snoop_filter.tot_snoops               0                       # Total number of snoops made to the snoop filter.
system.tol2bus.snoop_filter.hit_multi_requests          104                       # Number of requests hitting in the snoop filter with multiple (>1) holders of the requested data.
system.tol2bus.snoop_filter.hit_multi_snoops            0                       # Number of snoops hitting in the snoop filter with multiple (>1) holders of the requested data.
system.tol2bus.snoop_filter.hit_single_requests       722162                       # Number of requests hitting in the snoop filter with a single holder of the requested data.
system.tol2bus.snoop_filter.hit_single_snoops            0                       # Number of snoops hitting in the snoop filter with a single holder of the requested data.
system.tol2bus.snoop_filter.tot_requests      1445738                       # Total number of requests made to the snoop filter.
system.tol2bus.snoop_filter.tot_snoops              0                       # Total number of snoops made to the snoop filter.
system.clk_domain.clock                          1000                       # Clock period in ticks
system.cpu.branchPred.lookups                20405453                       # Number of BP lookups
system.cpu.branchPred.condPredicted          16342528                       # Number of conditional branches predicted
system.cpu.branchPred.condIncorrect            142542                       # Number of conditional branches incorrect
system.cpu.branchPred.BTBLookups              8782131                       # Number of BTB lookups
system.cpu.branchPred.BTBHits                 8691491                       # Number of BTB hits
system.cpu.branchPred.BTBHitPct             98.967904                       # BTB Hit Percentage
system.cpu.branchPred.RASUsed                 1050599                       # Number of times the RAS was used to get a target.
system.cpu.branchPred.RASIncorrect                313                       # Number of incorrect RAS predictions.
system.cpu.branchPred.indirectLookups          433985                       # Number of indirect predictor lookups.
system.cpu.branchPred.indirectHits             300039                       # Number of indirect target hits.
system.cpu.branchPred.indirectMisses           133946                       # Number of indirect misses.
system.cpu.branchPred.indirectMispredicted         1038                       # Number of mispredicted indirect branches.
system.cpu.dcache.demand_hits::.cpu.data     35657482                       # number of demand (read+write) hits
system.cpu.dcache.demand_hits::total         35657482                       # number of demand (read+write) hits
system.cpu.dcache.overall_hits::.cpu.data     35660800                       # number of overall hits
system.cpu.dcache.overall_hits::total        35660800                       # number of overall hits
system.cpu.dcache.demand_misses::.cpu.data        74244                       # number of demand (read+write) misses
system.cpu.dcache.demand_misses::total          74244                       # number of demand (read+write) misses
system.cpu.dcache.overall_misses::.cpu.data        74287                       # number of overall misses
system.cpu.dcache.overall_misses::total         74287                       # number of overall misses
system.cpu.dcache.demand_miss_latency::.cpu.data   4516732000                       # number of demand (read+write) miss cycles
system.cpu.dcache.demand_miss_latency::total   4516732000                       # number of demand (read+write) miss cycles
system.cpu.dcache.overall_miss_latency::.cpu.data   4516732000                       # number of overall miss cycles
system.cpu.dcache.overall_miss_latency::total   4516732000                       # number of overall miss cycles
system.cpu.dcache.demand_accesses::.cpu.data     35731726                       # number of demand (read+write) accesses
system.cpu.dcache.demand_accesses::total     35731726                       # number of demand (read+write) accesses
system.cpu.dcache.overall_accesses::.cpu.data     35735087                       # number of overall (read+write) accesses
system.cpu.dcache.overall_accesses::total     35735087                       # number of overall (read+write) accesses
system.cpu.dcache.demand_miss_rate::.cpu.data     0.002078                       # miss rate for demand accesses
system.cpu.dcache.demand_miss_rate::total     0.002078                       # miss rate for demand accesses
system.cpu.dcache.overall_miss_rate::.cpu.data     0.002079                       # miss rate for overall accesses
system.cpu.dcache.overall_miss_rate::total     0.002079                       # miss rate for overall accesses
system.cpu.dcache.demand_avg_miss_latency::.cpu.data 60836.323474                       # average overall miss latency
system.cpu.dcache.demand_avg_miss_latency::total 60836.323474                       # average overall miss latency
system.cpu.dcache.overall_avg_miss_latency::.cpu.data 60801.109212                       # average overall miss latency
system.cpu.dcache.overall_avg_miss_latency::total 60801.109212                       # average overall miss latency
system.cpu.dcache.blocked_cycles::no_mshrs            0                       # number of cycles access was blocked
system.cpu.dcache.blocked_cycles::no_targets            0                       # number of cycles access was blocked
system.cpu.dcache.blocked::no_mshrs                 0                       # number of cycles access was blocked
system.cpu.dcache.blocked::no_targets               0                       # number of cycles access was blocked
system.cpu.dcache.avg_blocked_cycles::no_mshrs          nan                       # average number of cycles each access was blocked
system.cpu.dcache.avg_blocked_cycles::no_targets          nan                       # average number of cycles each access was blocked
system.cpu.dcache.writebacks::.writebacks        50228                       # number of writebacks
system.cpu.dcache.writebacks::total             50228                       # number of writebacks
system.cpu.dcache.demand_mshr_hits::.cpu.data        19605                       # number of demand (read+write) MSHR hits
system.cpu.dcache.demand_mshr_hits::total        19605                       # number of demand (read+write) MSHR hits
system.cpu.dcache.overall_mshr_hits::.cpu.data        19605                       # number of overall MSHR hits
system.cpu.dcache.overall_mshr_hits::total        19605                       # number of overall MSHR hits
system.cpu.dcache.demand_mshr_misses::.cpu.data        54639                       # number of demand (read+write) MSHR misses
system.cpu.dcache.demand_mshr_misses::total        54639                       # number of demand (read+write) MSHR misses
system.cpu.dcache.overall_mshr_misses::.cpu.data        54676                       # number of overall MSHR misses
system.cpu.dcache.overall_mshr_misses::total        54676                       # number of overall MSHR misses
system.cpu.dcache.demand_mshr_miss_latency::.cpu.data   3370851000                       # number of demand (read+write) MSHR miss cycles
system.cpu.dcache.demand_mshr_miss_latency::total   3370851000                       # number of demand (read+write) MSHR miss cycles
system.cpu.dcache.overall_mshr_miss_latency::.cpu.data   3372152000                       # number of overall MSHR miss cycles
system.cpu.dcache.overall_mshr_miss_latency::total   3372152000                       # number of overall MSHR miss cycles
system.cpu.dcache.demand_mshr_miss_rate::.cpu.data     0.001529                       # mshr miss rate for demand accesses
system.cpu.dcache.demand_mshr_miss_rate::total     0.001529                       # mshr miss rate for demand accesses
system.cpu.dcache.overall_mshr_miss_rate::.cpu.data     0.001530                       # mshr miss rate for overall accesses
system.cpu.dcache.overall_mshr_miss_rate::total     0.001530                       # mshr miss rate for overall accesses
system.cpu.dcache.demand_avg_mshr_miss_latency::.cpu.data 61693.131280                       # average overall mshr miss latency
system.cpu.dcache.demand_avg_mshr_miss_latency::total 61693.131280                       # average overall mshr miss latency
system.cpu.dcache.overall_avg_mshr_miss_latency::.cpu.data 61675.177409                       # average overall mshr miss latency
system.cpu.dcache.overall_avg_mshr_miss_latency::total 61675.177409                       # average overall mshr miss latency
system.cpu.dcache.replacements                  53652                       # number of replacements
system.cpu.dcache.ReadReq_hits::.cpu.data     21458419                       # number of ReadReq hits
system.cpu.dcache.ReadReq_hits::total        21458419                       # number of ReadReq hits
system.cpu.dcache.ReadReq_misses::.cpu.data        18680                       # number of ReadReq misses
system.cpu.dcache.ReadReq_misses::total         18680                       # number of ReadReq misses
system.cpu.dcache.ReadReq_miss_latency::.cpu.data    271465500                       # number of ReadReq miss cycles
system.cpu.dcache.ReadReq_miss_latency::total    271465500                       # number of ReadReq miss cycles
system.cpu.dcache.ReadReq_accesses::.cpu.data     21477099                       # number of ReadReq accesses(hits+misses)
system.cpu.dcache.ReadReq_accesses::total     21477099                       # number of ReadReq accesses(hits+misses)
system.cpu.dcache.ReadReq_miss_rate::.cpu.data     0.000870                       # miss rate for ReadReq accesses
system.cpu.dcache.ReadReq_miss_rate::total     0.000870                       # miss rate for ReadReq accesses
system.cpu.dcache.ReadReq_avg_miss_latency::.cpu.data 14532.414347                       # average ReadReq miss latency
system.cpu.dcache.ReadReq_avg_miss_latency::total 14532.414347                       # average ReadReq miss latency
system.cpu.dcache.ReadReq_mshr_hits::.cpu.data         2974                       # number of ReadReq MSHR hits
system.cpu.dcache.ReadReq_mshr_hits::total         2974                       # number of ReadReq MSHR hits
system.cpu.dcache.ReadReq_mshr_misses::.cpu.data        15706                       # number of ReadReq MSHR misses
system.cpu.dcache.ReadReq_mshr_misses::total        15706                       # number of ReadReq MSHR misses
system.cpu.dcache.ReadReq_mshr_miss_latency::.cpu.data    205806000                       # number of ReadReq MSHR miss cycles
system.cpu.dcache.ReadReq_mshr_miss_latency::total    205806000                       # number of ReadReq MSHR miss cycles
system.cpu.dcache.ReadReq_mshr_miss_rate::.cpu.data     0.000731                       # mshr miss rate for ReadReq accesses
system.cpu.dcache.ReadReq_mshr_miss_rate::total     0.000731                       # mshr miss rate for ReadReq accesses
system.cpu.dcache.ReadReq_avg_mshr_miss_latency::.cpu.data 13103.654654                       # average ReadReq mshr miss latency
system.cpu.dcache.ReadReq_avg_mshr_miss_latency::total 13103.654654                       # average ReadReq mshr miss latency
system.cpu.dcache.WriteReq_hits::.cpu.data     14199063                       # number of WriteReq hits
system.cpu.dcache.WriteReq_hits::total       14199063                       # number of WriteReq hits
system.cpu.dcache.WriteReq_misses::.cpu.data        55564                       # number of WriteReq misses
system.cpu.dcache.WriteReq_misses::total        55564                       # number of WriteReq misses
system.cpu.dcache.WriteReq_miss_latency::.cpu.data   4245266500                       # number of WriteReq miss cycles
system.cpu.dcache.WriteReq_miss_latency::total   4245266500                       # number of WriteReq miss cycles
system.cpu.dcache.WriteReq_accesses::.cpu.data     14254627                       # number of WriteReq accesses(hits+misses)
system.cpu.dcache.WriteReq_accesses::total     14254627                       # number of WriteReq accesses(hits+misses)
system.cpu.dcache.WriteReq_miss_rate::.cpu.data     0.003898                       # miss rate for WriteReq accesses
system.cpu.dcache.WriteReq_miss_rate::total     0.003898                       # miss rate for WriteReq accesses
system.cpu.dcache.WriteReq_avg_miss_latency::.cpu.data 76403.183716                       # average WriteReq miss latency
system.cpu.dcache.WriteReq_avg_miss_latency::total 76403.183716                       # average WriteReq miss latency
system.cpu.dcache.WriteReq_mshr_hits::.cpu.data        16631                       # number of WriteReq MSHR hits
system.cpu.dcache.WriteReq_mshr_hits::total        16631                       # number of WriteReq MSHR hits
system.cpu.dcache.WriteReq_mshr_misses::.cpu.data        38933                       # number of WriteReq MSHR misses
system.cpu.dcache.WriteReq_mshr_misses::total        38933                       # number of WriteReq MSHR misses
system.cpu.dcache.WriteReq_mshr_miss_latency::.cpu.data   3165045000                       # number of WriteReq MSHR miss cycles
system.cpu.dcache.WriteReq_mshr_miss_latency::total   3165045000                       # number of WriteReq MSHR miss cycles
system.cpu.dcache.WriteReq_mshr_miss_rate::.cpu.data     0.002731                       # mshr miss rate for WriteReq accesses
system.cpu.dcache.WriteReq_mshr_miss_rate::total     0.002731                       # mshr miss rate for WriteReq accesses
system.cpu.dcache.WriteReq_avg_mshr_miss_latency::.cpu.data 81294.660057                       # average WriteReq mshr miss latency
system.cpu.dcache.WriteReq_avg_mshr_miss_latency::total 81294.660057                       # average WriteReq mshr miss latency
system.cpu.dcache.SoftPFReq_hits::.cpu.data         3318                       # number of SoftPFReq hits
system.cpu.dcache.SoftPFReq_hits::total          3318                       # number of SoftPFReq hits
system.cpu.dcache.SoftPFReq_misses::.cpu.data           43                       # number of SoftPFReq misses
system.cpu.dcache.SoftPFReq_misses::total           43                       # number of SoftPFReq misses
system.cpu.dcache.SoftPFReq_accesses::.cpu.data         3361                       # number of SoftPFReq accesses(hits+misses)
system.cpu.dcache.SoftPFReq_accesses::total         3361                       # number of SoftPFReq accesses(hits+misses)
system.cpu.dcache.SoftPFReq_miss_rate::.cpu.data     0.012794                       # miss rate for SoftPFReq accesses
system.cpu.dcache.SoftPFReq_miss_rate::total     0.012794                       # miss rate for SoftPFReq accesses
system.cpu.dcache.SoftPFReq_mshr_misses::.cpu.data           37                       # number of SoftPFReq MSHR misses
system.cpu.dcache.SoftPFReq_mshr_misses::total           37                       # number of SoftPFReq MSHR misses
system.cpu.dcache.SoftPFReq_mshr_miss_latency::.cpu.data      1301000                       # number of SoftPFReq MSHR miss cycles
system.cpu.dcache.SoftPFReq_mshr_miss_latency::total      1301000                       # number of SoftPFReq MSHR miss cycles
system.cpu.dcache.SoftPFReq_mshr_miss_rate::.cpu.data     0.011009                       # mshr miss rate for SoftPFReq accesses
system.cpu.dcache.SoftPFReq_mshr_miss_rate::total     0.011009                       # mshr miss rate for SoftPFReq accesses
system.cpu.dcache.SoftPFReq_avg_mshr_miss_latency::.cpu.data 35162.162162                       # average SoftPFReq mshr miss latency
system.cpu.dcache.SoftPFReq_avg_mshr_miss_latency::total 35162.162162                       # average SoftPFReq mshr miss latency
system.cpu.dcache.LoadLockedReq_hits::.cpu.data        89082                       # number of LoadLockedReq hits
system.cpu.dcache.LoadLockedReq_hits::total        89082                       # number of LoadLockedReq hits
system.cpu.dcache.LoadLockedReq_accesses::.cpu.data        89082                       # number of LoadLockedReq accesses(hits+misses)
system.cpu.dcache.LoadLockedReq_accesses::total        89082                       # number of LoadLockedReq accesses(hits+misses)
system.cpu.dcache.StoreCondReq_hits::.cpu.data        89082                       # number of StoreCondReq hits
system.cpu.dcache.StoreCondReq_hits::total        89082                       # number of StoreCondReq hits
system.cpu.dcache.StoreCondReq_accesses::.cpu.data        89082                       # number of StoreCondReq accesses(hits+misses)
system.cpu.dcache.StoreCondReq_accesses::total        89082                       # number of StoreCondReq accesses(hits+misses)
system.cpu.dcache.power_state.pwrStateResidencyTicks::UNDEFINED  64917394500                       # Cumulative time (in ticks) in various power states
system.cpu.dcache.tags.tagsinuse          1020.572062                       # Cycle average of tags in use
system.cpu.dcache.tags.total_refs            35893640                       # Total number of references to valid blocks.
system.cpu.dcache.tags.sampled_refs             54676                       # Sample count of references to valid blocks.
system.cpu.dcache.tags.avg_refs            656.478894                       # Average number of references to valid blocks.
system.cpu.dcache.tags.warmup_cycle            195500                       # Cycle when the warmup percentage was hit.
system.cpu.dcache.tags.occ_blocks::.cpu.data  1020.572062                       # Average occupied blocks per requestor
system.cpu.dcache.tags.occ_percent::.cpu.data     0.996652                       # Average percentage of cache occupancy
system.cpu.dcache.tags.occ_percent::total     0.996652                       # Average percentage of cache occupancy
system.cpu.dcache.tags.occ_task_id_blocks::1024         1024                       # Occupied blocks per task id
system.cpu.dcache.tags.age_task_id_blocks_1024::0            5                       # Occupied blocks per task id
system.cpu.dcache.tags.age_task_id_blocks_1024::1           38                       # Occupied blocks per task id
system.cpu.dcache.tags.age_task_id_blocks_1024::2          493                       # Occupied blocks per task id
system.cpu.dcache.tags.age_task_id_blocks_1024::3          447                       # Occupied blocks per task id
system.cpu.dcache.tags.age_task_id_blocks_1024::4           41                       # Occupied blocks per task id
system.cpu.dcache.tags.occ_task_id_percent::1024            1                       # Percentage of cache occupancy per task id
system.cpu.dcache.tags.tag_accesses          71881178                       # Number of tag accesses
system.cpu.dcache.tags.data_accesses         71881178                       # Number of data accesses
system.cpu.dcache.tags.power_state.pwrStateResidencyTicks::UNDEFINED  64917394500                       # Cumulative time (in ticks) in various power states
system.cpu.dtb.instHits                             0                       # ITB inst hits
system.cpu.dtb.instMisses                           0                       # ITB inst misses
system.cpu.dtb.readHits                             0                       # DTB read hits
system.cpu.dtb.readMisses                           0                       # DTB read misses
system.cpu.dtb.writeHits                            0                       # DTB write hits
system.cpu.dtb.writeMisses                          0                       # DTB write misses
system.cpu.dtb.inserts                              0                       # Number of times an entry is inserted into the TLB
system.cpu.dtb.flushTlb                             0                       # Number of times complete TLB was flushed
system.cpu.dtb.flushTlbMva                          0                       # Number of times TLB was flushed by MVA
system.cpu.dtb.flushTlbMvaAsid                      0                       # Number of times TLB was flushed by MVA & ASID
system.cpu.dtb.flushTlbAsid                         0                       # Number of times TLB was flushed by ASID
system.cpu.dtb.flushedEntries                       0                       # Number of entries that have been flushed from TLB
system.cpu.dtb.alignFaults                          0                       # Number of TLB faults due to alignment restrictions
system.cpu.dtb.prefetchFaults                       0                       # Number of TLB faults due to prefetch
system.cpu.dtb.domainFaults                         0                       # Number of TLB faults due to domain restrictions
system.cpu.dtb.permsFaults                          0                       # Number of TLB faults due to permissions restrictions
system.cpu.dtb.readAccesses                         0                       # DTB read accesses
system.cpu.dtb.writeAccesses                        0                       # DTB write accesses
system.cpu.dtb.instAccesses                         0                       # ITB inst accesses
system.cpu.dtb.hits                                 0                       # Total TLB (inst and data) hits
system.cpu.dtb.misses                               0                       # Total TLB (inst and data) misses
system.cpu.dtb.accesses                             0                       # Total TLB (inst and data) accesses
system.cpu.dtb.stage2_mmu.stage2_tlb.instHits            0                       # ITB inst hits
system.cpu.dtb.stage2_mmu.stage2_tlb.instMisses            0                       # ITB inst misses
system.cpu.dtb.stage2_mmu.stage2_tlb.readHits            0                       # DTB read hits
system.cpu.dtb.stage2_mmu.stage2_tlb.readMisses            0                       # DTB read misses
system.cpu.dtb.stage2_mmu.stage2_tlb.writeHits            0                       # DTB write hits
system.cpu.dtb.stage2_mmu.stage2_tlb.writeMisses            0                       # DTB write misses
system.cpu.dtb.stage2_mmu.stage2_tlb.inserts            0                       # Number of times an entry is inserted into the TLB
system.cpu.dtb.stage2_mmu.stage2_tlb.flushTlb            0                       # Number of times complete TLB was flushed
system.cpu.dtb.stage2_mmu.stage2_tlb.flushTlbMva            0                       # Number of times TLB was flushed by MVA
system.cpu.dtb.stage2_mmu.stage2_tlb.flushTlbMvaAsid            0                       # Number of times TLB was flushed by MVA & ASID
system.cpu.dtb.stage2_mmu.stage2_tlb.flushTlbAsid            0                       # Number of times TLB was flushed by ASID
system.cpu.dtb.stage2_mmu.stage2_tlb.flushedEntries            0                       # Number of entries that have been flushed from TLB
system.cpu.dtb.stage2_mmu.stage2_tlb.alignFaults            0                       # Number of TLB faults due to alignment restrictions
system.cpu.dtb.stage2_mmu.stage2_tlb.prefetchFaults            0                       # Number of TLB faults due to prefetch
system.cpu.dtb.stage2_mmu.stage2_tlb.domainFaults            0                       # Number of TLB faults due to domain restrictions
system.cpu.dtb.stage2_mmu.stage2_tlb.permsFaults            0                       # Number of TLB faults due to permissions restrictions
system.cpu.dtb.stage2_mmu.stage2_tlb.readAccesses            0                       # DTB read accesses
system.cpu.dtb.stage2_mmu.stage2_tlb.writeAccesses            0                       # DTB write accesses
system.cpu.dtb.stage2_mmu.stage2_tlb.instAccesses            0                       # ITB inst accesses
system.cpu.dtb.stage2_mmu.stage2_tlb.hits            0                       # Total TLB (inst and data) hits
system.cpu.dtb.stage2_mmu.stage2_tlb.misses            0                       # Total TLB (inst and data) misses
system.cpu.dtb.stage2_mmu.stage2_tlb.accesses            0                       # Total TLB (inst and data) accesses
system.cpu.dtb.stage2_mmu.stage2_tlb.walker.walks            0                       # Table walker walks requested
system.cpu.dtb.stage2_mmu.stage2_tlb.walker.requestOrigin_Requested::Data            0                       # Table walker requests started/completed, data/inst
system.cpu.dtb.stage2_mmu.stage2_tlb.walker.requestOrigin_Requested::Inst            0                       # Table walker requests started/completed, data/inst
system.cpu.dtb.stage2_mmu.stage2_tlb.walker.requestOrigin_Requested::total            0                       # Table walker requests started/completed, data/inst
system.cpu.dtb.stage2_mmu.stage2_tlb.walker.requestOrigin_Completed::Data            0                       # Table walker requests started/completed, data/inst
system.cpu.dtb.stage2_mmu.stage2_tlb.walker.requestOrigin_Completed::Inst            0                       # Table walker requests started/completed, data/inst
system.cpu.dtb.stage2_mmu.stage2_tlb.walker.requestOrigin_Completed::total            0                       # Table walker requests started/completed, data/inst
system.cpu.dtb.stage2_mmu.stage2_tlb.walker.requestOrigin::total            0                       # Table walker requests started/completed, data/inst
system.cpu.dtb.stage2_mmu.stage2_tlb.walker.power_state.pwrStateResidencyTicks::UNDEFINED  64917394500                       # Cumulative time (in ticks) in various power states
system.cpu.dtb.walker.walks                         0                       # Table walker walks requested
system.cpu.dtb.walker.requestOrigin_Requested::Data            0                       # Table walker requests started/completed, data/inst
system.cpu.dtb.walker.requestOrigin_Requested::Inst            0                       # Table walker requests started/completed, data/inst
system.cpu.dtb.walker.requestOrigin_Requested::total            0                       # Table walker requests started/completed, data/inst
system.cpu.dtb.walker.requestOrigin_Completed::Data            0                       # Table walker requests started/completed, data/inst
system.cpu.dtb.walker.requestOrigin_Completed::Inst            0                       # Table walker requests started/completed, data/inst
system.cpu.dtb.walker.requestOrigin_Completed::total            0                       # Table walker requests started/completed, data/inst
system.cpu.dtb.walker.requestOrigin::total            0                       # Table walker requests started/completed, data/inst
system.cpu.dtb.walker.power_state.pwrStateResidencyTicks::UNDEFINED  64917394500                       # Cumulative time (in ticks) in various power states
system.cpu.fetch2.intInstructions            49598899                       # Number of integer instructions successfully decoded
system.cpu.fetch2.fpInstructions                    0                       # Number of floating point instructions successfully decoded
system.cpu.fetch2.vecInstructions                   0                       # Number of SIMD instructions successfully decoded
system.cpu.fetch2.loadInstructions           17151141                       # Number of memory load instructions successfully decoded
system.cpu.fetch2.storeInstructions           9897497                       # Number of memory store instructions successfully decoded
system.cpu.fetch2.amoInstructions                   0                       # Number of memory atomic instructions successfully decoded
system.cpu.icache.demand_hits::.cpu.inst     27662651                       # number of demand (read+write) hits
system.cpu.icache.demand_hits::total         27662651                       # number of demand (read+write) hits
system.cpu.icache.overall_hits::.cpu.inst     27662651                       # number of overall hits
system.cpu.icache.overall_hits::total        27662651                       # number of overall hits
system.cpu.icache.demand_misses::.cpu.inst       668904                       # number of demand (read+write) misses
system.cpu.icache.demand_misses::total         668904                       # number of demand (read+write) misses
system.cpu.icache.overall_misses::.cpu.inst       668904                       # number of overall misses
system.cpu.icache.overall_misses::total        668904                       # number of overall misses
system.cpu.icache.demand_miss_latency::.cpu.inst   8729385000                       # number of demand (read+write) miss cycles
system.cpu.icache.demand_miss_latency::total   8729385000                       # number of demand (read+write) miss cycles
system.cpu.icache.overall_miss_latency::.cpu.inst   8729385000                       # number of overall miss cycles
system.cpu.icache.overall_miss_latency::total   8729385000                       # number of overall miss cycles
system.cpu.icache.demand_accesses::.cpu.inst     28331555                       # number of demand (read+write) accesses
system.cpu.icache.demand_accesses::total     28331555                       # number of demand (read+write) accesses
system.cpu.icache.overall_accesses::.cpu.inst     28331555                       # number of overall (read+write) accesses
system.cpu.icache.overall_accesses::total     28331555                       # number of overall (read+write) accesses
system.cpu.icache.demand_miss_rate::.cpu.inst     0.023610                       # miss rate for demand accesses
system.cpu.icache.demand_miss_rate::total     0.023610                       # miss rate for demand accesses
system.cpu.icache.overall_miss_rate::.cpu.inst     0.023610                       # miss rate for overall accesses
system.cpu.icache.overall_miss_rate::total     0.023610                       # miss rate for overall accesses
system.cpu.icache.demand_avg_miss_latency::.cpu.inst 13050.280758                       # average overall miss latency
system.cpu.icache.demand_avg_miss_latency::total 13050.280758                       # average overall miss latency
system.cpu.icache.overall_avg_miss_latency::.cpu.inst 13050.280758                       # average overall miss latency
system.cpu.icache.overall_avg_miss_latency::total 13050.280758                       # average overall miss latency
system.cpu.icache.blocked_cycles::no_mshrs            0                       # number of cycles access was blocked
system.cpu.icache.blocked_cycles::no_targets            0                       # number of cycles access was blocked
system.cpu.icache.blocked::no_mshrs                 0                       # number of cycles access was blocked
system.cpu.icache.blocked::no_targets               0                       # number of cycles access was blocked
system.cpu.icache.avg_blocked_cycles::no_mshrs          nan                       # average number of cycles each access was blocked
system.cpu.icache.avg_blocked_cycles::no_targets          nan                       # average number of cycles each access was blocked
system.cpu.icache.writebacks::.writebacks       668506                       # number of writebacks
system.cpu.icache.writebacks::total            668506                       # number of writebacks
system.cpu.icache.demand_mshr_misses::.cpu.inst       668904                       # number of demand (read+write) MSHR misses
system.cpu.icache.demand_mshr_misses::total       668904                       # number of demand (read+write) MSHR misses
system.cpu.icache.overall_mshr_misses::.cpu.inst       668904                       # number of overall MSHR misses
system.cpu.icache.overall_mshr_misses::total       668904                       # number of overall MSHR misses
system.cpu.icache.demand_mshr_miss_latency::.cpu.inst   8060481000                       # number of demand (read+write) MSHR miss cycles
system.cpu.icache.demand_mshr_miss_latency::total   8060481000                       # number of demand (read+write) MSHR miss cycles
system.cpu.icache.overall_mshr_miss_latency::.cpu.inst   8060481000                       # number of overall MSHR miss cycles
system.cpu.icache.overall_mshr_miss_latency::total   8060481000                       # number of overall MSHR miss cycles
system.cpu.icache.demand_mshr_miss_rate::.cpu.inst     0.023610                       # mshr miss rate for demand accesses
system.cpu.icache.demand_mshr_miss_rate::total     0.023610                       # mshr miss rate for demand accesses
system.cpu.icache.overall_mshr_miss_rate::.cpu.inst     0.023610                       # mshr miss rate for overall accesses
system.cpu.icache.overall_mshr_miss_rate::total     0.023610                       # mshr miss rate for overall accesses
system.cpu.icache.demand_avg_mshr_miss_latency::.cpu.inst 12050.280758                       # average overall mshr miss latency
system.cpu.icache.demand_avg_mshr_miss_latency::total 12050.280758                       # average overall mshr miss latency
system.cpu.icache.overall_avg_mshr_miss_latency::.cpu.inst 12050.280758                       # average overall mshr miss latency
system.cpu.icache.overall_avg_mshr_miss_latency::total 12050.280758                       # average overall mshr miss latency
system.cpu.icache.replacements                 668506                       # number of replacements
system.cpu.icache.ReadReq_hits::.cpu.inst     27662651                       # number of ReadReq hits
system.cpu.icache.ReadReq_hits::total        27662651                       # number of ReadReq hits
system.cpu.icache.ReadReq_misses::.cpu.inst       668904                       # number of ReadReq misses
system.cpu.icache.ReadReq_misses::total        668904                       # number of ReadReq misses
system.cpu.icache.ReadReq_miss_latency::.cpu.inst   8729385000                       # number of ReadReq miss cycles
system.cpu.icache.ReadReq_miss_latency::total   8729385000                       # number of ReadReq miss cycles
system.cpu.icache.ReadReq_accesses::.cpu.inst     28331555                       # number of ReadReq accesses(hits+misses)
system.cpu.icache.ReadReq_accesses::total     28331555                       # number of ReadReq accesses(hits+misses)
system.cpu.icache.ReadReq_miss_rate::.cpu.inst     0.023610                       # miss rate for ReadReq accesses
system.cpu.icache.ReadReq_miss_rate::total     0.023610                       # miss rate for ReadReq accesses
system.cpu.icache.ReadReq_avg_miss_latency::.cpu.inst 13050.280758                       # average ReadReq miss latency
system.cpu.icache.ReadReq_avg_miss_latency::total 13050.280758                       # average ReadReq miss latency
system.cpu.icache.ReadReq_mshr_misses::.cpu.inst       668904                       # number of ReadReq MSHR misses
system.cpu.icache.ReadReq_mshr_misses::total       668904                       # number of ReadReq MSHR misses
system.cpu.icache.ReadReq_mshr_miss_latency::.cpu.inst   8060481000                       # number of ReadReq MSHR miss cycles
system.cpu.icache.ReadReq_mshr_miss_latency::total   8060481000                       # number of ReadReq MSHR miss cycles
system.cpu.icache.ReadReq_mshr_miss_rate::.cpu.inst     0.023610                       # mshr miss rate for ReadReq accesses
system.cpu.icache.ReadReq_mshr_miss_rate::total     0.023610                       # mshr miss rate for ReadReq accesses
system.cpu.icache.ReadReq_avg_mshr_miss_latency::.cpu.inst 12050.280758                       # average ReadReq mshr miss latency
system.cpu.icache.ReadReq_avg_mshr_miss_latency::total 12050.280758                       # average ReadReq mshr miss latency
system.cpu.icache.power_state.pwrStateResidencyTicks::UNDEFINED  64917394500                       # Cumulative time (in ticks) in various power states
system.cpu.icache.tags.tagsinuse           397.677871                       # Cycle average of tags in use
system.cpu.icache.tags.total_refs            28331555                       # Total number of references to valid blocks.
system.cpu.icache.tags.sampled_refs            668904                       # Sample count of references to valid blocks.
system.cpu.icache.tags.avg_refs             42.355188                       # Average number of references to valid blocks.
system.cpu.icache.tags.warmup_cycle             87500                       # Cycle when the warmup percentage was hit.
system.cpu.icache.tags.occ_blocks::.cpu.inst   397.677871                       # Average occupied blocks per requestor
system.cpu.icache.tags.occ_percent::.cpu.inst     0.776715                       # Average percentage of cache occupancy
system.cpu.icache.tags.occ_percent::total     0.776715                       # Average percentage of cache occupancy
system.cpu.icache.tags.occ_task_id_blocks::1024          398                       # Occupied blocks per task id
system.cpu.icache.tags.age_task_id_blocks_1024::0           10                       # Occupied blocks per task id
system.cpu.icache.tags.age_task_id_blocks_1024::2            4                       # Occupied blocks per task id
system.cpu.icache.tags.age_task_id_blocks_1024::4          384                       # Occupied blocks per task id
system.cpu.icache.tags.occ_task_id_percent::1024     0.777344                       # Percentage of cache occupancy per task id
system.cpu.icache.tags.tag_accesses          57332014                       # Number of tag accesses
system.cpu.icache.tags.data_accesses         57332014                       # Number of data accesses
system.cpu.icache.tags.power_state.pwrStateResidencyTicks::UNDEFINED  64917394500                       # Cumulative time (in ticks) in various power states
system.cpu.itb.instHits                             0                       # ITB inst hits
system.cpu.itb.instMisses                           0                       # ITB inst misses
system.cpu.itb.readHits                             0                       # DTB read hits
system.cpu.itb.readMisses                           0                       # DTB read misses
system.cpu.itb.writeHits                            0                       # DTB write hits
system.cpu.itb.writeMisses                          0                       # DTB write misses
system.cpu.itb.inserts                              0                       # Number of times an entry is inserted into the TLB
system.cpu.itb.flushTlb                             0                       # Number of times complete TLB was flushed
system.cpu.itb.flushTlbMva                          0                       # Number of times TLB was flushed by MVA
system.cpu.itb.flushTlbMvaAsid                      0                       # Number of times TLB was flushed by MVA & ASID
system.cpu.itb.flushTlbAsid                         0                       # Number of times TLB was flushed by ASID
system.cpu.itb.flushedEntries                       0                       # Number of entries that have been flushed from TLB
system.cpu.itb.alignFaults                          0                       # Number of TLB faults due to alignment restrictions
system.cpu.itb.prefetchFaults                       0                       # Number of TLB faults due to prefetch
system.cpu.itb.domainFaults                         0                       # Number of TLB faults due to domain restrictions
system.cpu.itb.permsFaults                          0                       # Number of TLB faults due to permissions restrictions
system.cpu.itb.readAccesses                         0                       # DTB read accesses
system.cpu.itb.writeAccesses                        0                       # DTB write accesses
system.cpu.itb.instAccesses                         0                       # ITB inst accesses
system.cpu.itb.hits                                 0                       # Total TLB (inst and data) hits
system.cpu.itb.misses                               0                       # Total TLB (inst and data) misses
system.cpu.itb.accesses                             0                       # Total TLB (inst and data) accesses
system.cpu.itb.stage2_mmu.stage2_tlb.instHits            0                       # ITB inst hits
system.cpu.itb.stage2_mmu.stage2_tlb.instMisses            0                       # ITB inst misses
system.cpu.itb.stage2_mmu.stage2_tlb.readHits            0                       # DTB read hits
system.cpu.itb.stage2_mmu.stage2_tlb.readMisses            0                       # DTB read misses
system.cpu.itb.stage2_mmu.stage2_tlb.writeHits            0                       # DTB write hits
system.cpu.itb.stage2_mmu.stage2_tlb.writeMisses            0                       # DTB write misses
system.cpu.itb.stage2_mmu.stage2_tlb.inserts            0                       # Number of times an entry is inserted into the TLB
system.cpu.itb.stage2_mmu.stage2_tlb.flushTlb            0                       # Number of times complete TLB was flushed
system.cpu.itb.stage2_mmu.stage2_tlb.flushTlbMva            0                       # Number of times TLB was flushed by MVA
system.cpu.itb.stage2_mmu.stage2_tlb.flushTlbMvaAsid            0                       # Number of times TLB was flushed by MVA & ASID
system.cpu.itb.stage2_mmu.stage2_tlb.flushTlbAsid            0                       # Number of times TLB was flushed by ASID
system.cpu.itb.stage2_mmu.stage2_tlb.flushedEntries            0                       # Number of entries that have been flushed from TLB
system.cpu.itb.stage2_mmu.stage2_tlb.alignFaults            0                       # Number of TLB faults due to alignment restrictions
system.cpu.itb.stage2_mmu.stage2_tlb.prefetchFaults            0                       # Number of TLB faults due to prefetch
system.cpu.itb.stage2_mmu.stage2_tlb.domainFaults            0                       # Number of TLB faults due to domain restrictions
system.cpu.itb.stage2_mmu.stage2_tlb.permsFaults            0                       # Number of TLB faults due to permissions restrictions
system.cpu.itb.stage2_mmu.stage2_tlb.readAccesses            0                       # DTB read accesses
system.cpu.itb.stage2_mmu.stage2_tlb.writeAccesses            0                       # DTB write accesses
system.cpu.itb.stage2_mmu.stage2_tlb.instAccesses            0                       # ITB inst accesses
system.cpu.itb.stage2_mmu.stage2_tlb.hits            0                       # Total TLB (inst and data) hits
system.cpu.itb.stage2_mmu.stage2_tlb.misses            0                       # Total TLB (inst and data) misses
system.cpu.itb.stage2_mmu.stage2_tlb.accesses            0                       # Total TLB (inst and data) accesses
system.cpu.itb.stage2_mmu.stage2_tlb.walker.walks            0                       # Table walker walks requested
system.cpu.itb.stage2_mmu.stage2_tlb.walker.requestOrigin_Requested::Data            0                       # Table walker requests started/completed, data/inst
system.cpu.itb.stage2_mmu.stage2_tlb.walker.requestOrigin_Requested::Inst            0                       # Table walker requests started/completed, data/inst
system.cpu.itb.stage2_mmu.stage2_tlb.walker.requestOrigin_Requested::total            0                       # Table walker requests started/completed, data/inst
system.cpu.itb.stage2_mmu.stage2_tlb.walker.requestOrigin_Completed::Data            0                       # Table walker requests started/completed, data/inst
system.cpu.itb.stage2_mmu.stage2_tlb.walker.requestOrigin_Completed::Inst            0                       # Table walker requests started/completed, data/inst
system.cpu.itb.stage2_mmu.stage2_tlb.walker.requestOrigin_Completed::total            0                       # Table walker requests started/completed, data/inst
system.cpu.itb.stage2_mmu.stage2_tlb.walker.requestOrigin::total            0                       # Table walker requests started/completed, data/inst
system.cpu.itb.stage2_mmu.stage2_tlb.walker.power_state.pwrStateResidencyTicks::UNDEFINED  64917394500                       # Cumulative time (in ticks) in various power states
system.cpu.itb.walker.walks                         0                       # Table walker walks requested
system.cpu.itb.walker.requestOrigin_Requested::Data            0                       # Table walker requests started/completed, data/inst
system.cpu.itb.walker.requestOrigin_Requested::Inst            0                       # Table walker requests started/completed, data/inst
system.cpu.itb.walker.requestOrigin_Requested::total            0                       # Table walker requests started/completed, data/inst
system.cpu.itb.walker.requestOrigin_Completed::Data            0                       # Table walker requests started/completed, data/inst
system.cpu.itb.walker.requestOrigin_Completed::Inst            0                       # Table walker requests started/completed, data/inst
system.cpu.itb.walker.requestOrigin_Completed::total            0                       # Table walker requests started/completed, data/inst
system.cpu.itb.walker.requestOrigin::total            0                       # Table walker requests started/completed, data/inst
system.cpu.itb.walker.power_state.pwrStateResidencyTicks::UNDEFINED  64917394500                       # Cumulative time (in ticks) in various power states
system.cpu.power_state.pwrStateResidencyTicks::ON  64917394500                       # Cumulative time (in ticks) in various power states
system.cpu.thread_0.numInsts                100000000                       # Number of Instructions committed
system.cpu.thread_0.numOps                  109431867                       # Number of Ops committed
system.cpu.thread_0.numMemRefs                      0                       # Number of Memory References
system.cpu_clk_domain.clock                       500                       # Clock period in ticks
system.cpu_voltage_domain.voltage                   1                       # Voltage in Volts
system.l2.demand_hits::.cpu.inst               668394                       # number of demand (read+write) hits
system.l2.demand_hits::.cpu.data                15626                       # number of demand (read+write) hits
system.l2.demand_hits::total                   684020                       # number of demand (read+write) hits
system.l2.overall_hits::.cpu.inst              668394                       # number of overall hits
system.l2.overall_hits::.cpu.data               15626                       # number of overall hits
system.l2.overall_hits::total                  684020                       # number of overall hits
system.l2.demand_misses::.cpu.inst                510                       # number of demand (read+write) misses
system.l2.demand_misses::.cpu.data              39050                       # number of demand (read+write) misses
system.l2.demand_misses::total                  39560                       # number of demand (read+write) misses
system.l2.overall_misses::.cpu.inst               510                       # number of overall misses
system.l2.overall_misses::.cpu.data             39050                       # number of overall misses
system.l2.overall_misses::total                 39560                       # number of overall misses
system.l2.demand_miss_latency::.cpu.inst     38886000                       # number of demand (read+write) miss cycles
system.l2.demand_miss_latency::.cpu.data   3126045000                       # number of demand (read+write) miss cycles
system.l2.demand_miss_latency::total       3164931000                       # number of demand (read+write) miss cycles
system.l2.overall_miss_latency::.cpu.inst     38886000                       # number of overall miss cycles
system.l2.overall_miss_latency::.cpu.data   3126045000                       # number of overall miss cycles
system.l2.overall_miss_latency::total      3164931000                       # number of overall miss cycles
system.l2.demand_accesses::.cpu.inst           668904                       # number of demand (read+write) accesses
system.l2.demand_accesses::.cpu.data            54676                       # number of demand (read+write) accesses
system.l2.demand_accesses::total               723580                       # number of demand (read+write) accesses
system.l2.overall_accesses::.cpu.inst          668904                       # number of overall (read+write) accesses
system.l2.overall_accesses::.cpu.data           54676                       # number of overall (read+write) accesses
system.l2.overall_accesses::total              723580                       # number of overall (read+write) accesses
system.l2.demand_miss_rate::.cpu.inst        0.000762                       # miss rate for demand accesses
system.l2.demand_miss_rate::.cpu.data        0.714207                       # miss rate for demand accesses
system.l2.demand_miss_rate::total            0.054673                       # miss rate for demand accesses
system.l2.overall_miss_rate::.cpu.inst       0.000762                       # miss rate for overall accesses
system.l2.overall_miss_rate::.cpu.data       0.714207                       # miss rate for overall accesses
system.l2.overall_miss_rate::total           0.054673                       # miss rate for overall accesses
system.l2.demand_avg_miss_latency::.cpu.inst 76247.058824                       # average overall miss latency
system.l2.demand_avg_miss_latency::.cpu.data 80052.368758                       # average overall miss latency
system.l2.demand_avg_miss_latency::total 80003.311426                       # average overall miss latency
system.l2.overall_avg_miss_latency::.cpu.inst 76247.058824                       # average overall miss latency
system.l2.overall_avg_miss_latency::.cpu.data 80052.368758                       # average overall miss latency
system.l2.overall_avg_miss_latency::total 80003.311426                       # average overall miss latency
system.l2.blocked_cycles::no_mshrs                  0                       # number of cycles access was blocked
system.l2.blocked_cycles::no_targets                0                       # number of cycles access was blocked
system.l2.blocked::no_mshrs                         0                       # number of cycles access was blocked
system.l2.blocked::no_targets                       0                       # number of cycles access was blocked
system.l2.avg_blocked_cycles::no_mshrs            nan                       # average number of cycles each access was blocked
system.l2.avg_blocked_cycles::no_targets          nan                       # average number of cycles each access was blocked
system.l2.demand_mshr_hits::.cpu.inst               1                       # number of demand (read+write) MSHR hits
system.l2.demand_mshr_hits::.cpu.data               5                       # number of demand (read+write) MSHR hits
system.l2.demand_mshr_hits::total                   6                       # number of demand (read+write) MSHR hits
system.l2.overall_mshr_hits::.cpu.inst              1                       # number of overall MSHR hits
system.l2.overall_mshr_hits::.cpu.data              5                       # number of overall MSHR hits
system.l2.overall_mshr_hits::total                  6                       # number of overall MSHR hits
system.l2.demand_mshr_misses::.cpu.inst           509                       # number of demand (read+write) MSHR misses
system.l2.demand_mshr_misses::.cpu.data         39045                       # number of demand (read+write) MSHR misses
system.l2.demand_mshr_misses::total             39554                       # number of demand (read+write) MSHR misses
system.l2.overall_mshr_misses::.cpu.inst          509                       # number of overall MSHR misses
system.l2.overall_mshr_misses::.cpu.data        39045                       # number of overall MSHR misses
system.l2.overall_mshr_misses::total            39554                       # number of overall MSHR misses
system.l2.demand_mshr_miss_latency::.cpu.inst     33731500                       # number of demand (read+write) MSHR miss cycles
system.l2.demand_mshr_miss_latency::.cpu.data   2735254000                       # number of demand (read+write) MSHR miss cycles
system.l2.demand_mshr_miss_latency::total   2768985500                       # number of demand (read+write) MSHR miss cycles
system.l2.overall_mshr_miss_latency::.cpu.inst     33731500                       # number of overall MSHR miss cycles
system.l2.overall_mshr_miss_latency::.cpu.data   2735254000                       # number of overall MSHR miss cycles
system.l2.overall_mshr_miss_latency::total   2768985500                       # number of overall MSHR miss cycles
system.l2.demand_mshr_miss_rate::.cpu.inst     0.000761                       # mshr miss rate for demand accesses
system.l2.demand_mshr_miss_rate::.cpu.data     0.714116                       # mshr miss rate for demand accesses
system.l2.demand_mshr_miss_rate::total       0.054664                       # mshr miss rate for demand accesses
system.l2.overall_mshr_miss_rate::.cpu.inst     0.000761                       # mshr miss rate for overall accesses
system.l2.overall_mshr_miss_rate::.cpu.data     0.714116                       # mshr miss rate for overall accesses
system.l2.overall_mshr_miss_rate::total      0.054664                       # mshr miss rate for overall accesses
system.l2.demand_avg_mshr_miss_latency::.cpu.inst 66270.137525                       # average overall mshr miss latency
system.l2.demand_avg_mshr_miss_latency::.cpu.data 70053.886541                       # average overall mshr miss latency
system.l2.demand_avg_mshr_miss_latency::total 70005.195429                       # average overall mshr miss latency
system.l2.overall_avg_mshr_miss_latency::.cpu.inst 66270.137525                       # average overall mshr miss latency
system.l2.overall_avg_mshr_miss_latency::.cpu.data 70053.886541                       # average overall mshr miss latency
system.l2.overall_avg_mshr_miss_latency::total 70005.195429                       # average overall mshr miss latency
system.l2.replacements                              0                       # number of replacements
system.l2.WritebackDirty_hits::.writebacks        50228                       # number of WritebackDirty hits
system.l2.WritebackDirty_hits::total            50228                       # number of WritebackDirty hits
system.l2.WritebackDirty_accesses::.writebacks        50228                       # number of WritebackDirty accesses(hits+misses)
system.l2.WritebackDirty_accesses::total        50228                       # number of WritebackDirty accesses(hits+misses)
system.l2.WritebackClean_hits::.writebacks       668421                       # number of WritebackClean hits
system.l2.WritebackClean_hits::total           668421                       # number of WritebackClean hits
system.l2.WritebackClean_accesses::.writebacks       668421                       # number of WritebackClean accesses(hits+misses)
system.l2.WritebackClean_accesses::total       668421                       # number of WritebackClean accesses(hits+misses)
system.l2.ReadExReq_hits::.cpu.data               121                       # number of ReadExReq hits
system.l2.ReadExReq_hits::total                   121                       # number of ReadExReq hits
system.l2.ReadExReq_misses::.cpu.data           38812                       # number of ReadExReq misses
system.l2.ReadExReq_misses::total               38812                       # number of ReadExReq misses
system.l2.ReadExReq_miss_latency::.cpu.data   3105375000                       # number of ReadExReq miss cycles
system.l2.ReadExReq_miss_latency::total    3105375000                       # number of ReadExReq miss cycles
system.l2.ReadExReq_accesses::.cpu.data         38933                       # number of ReadExReq accesses(hits+misses)
system.l2.ReadExReq_accesses::total             38933                       # number of ReadExReq accesses(hits+misses)
system.l2.ReadExReq_miss_rate::.cpu.data     0.996892                       # miss rate for ReadExReq accesses
system.l2.ReadExReq_miss_rate::total         0.996892                       # miss rate for ReadExReq accesses
system.l2.ReadExReq_avg_miss_latency::.cpu.data 80010.692569                       # average ReadExReq miss latency
system.l2.ReadExReq_avg_miss_latency::total 80010.692569                       # average ReadExReq miss latency
system.l2.ReadExReq_mshr_misses::.cpu.data        38812                       # number of ReadExReq MSHR misses
system.l2.ReadExReq_mshr_misses::total          38812                       # number of ReadExReq MSHR misses
system.l2.ReadExReq_mshr_miss_latency::.cpu.data   2717255000                       # number of ReadExReq MSHR miss cycles
system.l2.ReadExReq_mshr_miss_latency::total   2717255000                       # number of ReadExReq MSHR miss cycles
system.l2.ReadExReq_mshr_miss_rate::.cpu.data     0.996892                       # mshr miss rate for ReadExReq accesses
system.l2.ReadExReq_mshr_miss_rate::total     0.996892                       # mshr miss rate for ReadExReq accesses
system.l2.ReadExReq_avg_mshr_miss_latency::.cpu.data 70010.692569                       # average ReadExReq mshr miss latency
system.l2.ReadExReq_avg_mshr_miss_latency::total 70010.692569                       # average ReadExReq mshr miss latency
system.l2.ReadCleanReq_hits::.cpu.inst         668394                       # number of ReadCleanReq hits
system.l2.ReadCleanReq_hits::total             668394                       # number of ReadCleanReq hits
system.l2.ReadCleanReq_misses::.cpu.inst          510                       # number of ReadCleanReq misses
system.l2.ReadCleanReq_misses::total              510                       # number of ReadCleanReq misses
system.l2.ReadCleanReq_miss_latency::.cpu.inst     38886000                       # number of ReadCleanReq miss cycles
system.l2.ReadCleanReq_miss_latency::total     38886000                       # number of ReadCleanReq miss cycles
system.l2.ReadCleanReq_accesses::.cpu.inst       668904                       # number of ReadCleanReq accesses(hits+misses)
system.l2.ReadCleanReq_accesses::total         668904                       # number of ReadCleanReq accesses(hits+misses)
system.l2.ReadCleanReq_miss_rate::.cpu.inst     0.000762                       # miss rate for ReadCleanReq accesses
system.l2.ReadCleanReq_miss_rate::total      0.000762                       # miss rate for ReadCleanReq accesses
system.l2.ReadCleanReq_avg_miss_latency::.cpu.inst 76247.058824                       # average ReadCleanReq miss latency
system.l2.ReadCleanReq_avg_miss_latency::total 76247.058824                       # average ReadCleanReq miss latency
system.l2.ReadCleanReq_mshr_hits::.cpu.inst            1                       # number of ReadCleanReq MSHR hits
system.l2.ReadCleanReq_mshr_hits::total             1                       # number of ReadCleanReq MSHR hits
system.l2.ReadCleanReq_mshr_misses::.cpu.inst          509                       # number of ReadCleanReq MSHR misses
system.l2.ReadCleanReq_mshr_misses::total          509                       # number of ReadCleanReq MSHR misses
system.l2.ReadCleanReq_mshr_miss_latency::.cpu.inst     33731500                       # number of ReadCleanReq MSHR miss cycles
system.l2.ReadCleanReq_mshr_miss_latency::total     33731500                       # number of ReadCleanReq MSHR miss cycles
system.l2.ReadCleanReq_mshr_miss_rate::.cpu.inst     0.000761                       # mshr miss rate for ReadCleanReq accesses
system.l2.ReadCleanReq_mshr_miss_rate::total     0.000761                       # mshr miss rate for ReadCleanReq accesses
system.l2.ReadCleanReq_avg_mshr_miss_latency::.cpu.inst 66270.137525                       # average ReadCleanReq mshr miss latency
system.l2.ReadCleanReq_avg_mshr_miss_latency::total 66270.137525                       # average ReadCleanReq mshr miss latency
system.l2.ReadSharedReq_hits::.cpu.data         15505                       # number of ReadSharedReq hits
system.l2.ReadSharedReq_hits::total             15505                       # number of ReadSharedReq hits
system.l2.ReadSharedReq_misses::.cpu.data          238                       # number of ReadSharedReq misses
system.l2.ReadSharedReq_misses::total             238                       # number of ReadSharedReq misses
system.l2.ReadSharedReq_miss_latency::.cpu.data     20670000                       # number of ReadSharedReq miss cycles
system.l2.ReadSharedReq_miss_latency::total     20670000                       # number of ReadSharedReq miss cycles
system.l2.ReadSharedReq_accesses::.cpu.data        15743                       # number of ReadSharedReq accesses(hits+misses)
system.l2.ReadSharedReq_accesses::total         15743                       # number of ReadSharedReq accesses(hits+misses)
system.l2.ReadSharedReq_miss_rate::.cpu.data     0.015118                       # miss rate for ReadSharedReq accesses
system.l2.ReadSharedReq_miss_rate::total     0.015118                       # miss rate for ReadSharedReq accesses
system.l2.ReadSharedReq_avg_miss_latency::.cpu.data 86848.739496                       # average ReadSharedReq miss latency
system.l2.ReadSharedReq_avg_miss_latency::total 86848.739496                       # average ReadSharedReq miss latency
system.l2.ReadSharedReq_mshr_hits::.cpu.data            5                       # number of ReadSharedReq MSHR hits
system.l2.ReadSharedReq_mshr_hits::total            5                       # number of ReadSharedReq MSHR hits
system.l2.ReadSharedReq_mshr_misses::.cpu.data          233                       # number of ReadSharedReq MSHR misses
system.l2.ReadSharedReq_mshr_misses::total          233                       # number of ReadSharedReq MSHR misses
system.l2.ReadSharedReq_mshr_miss_latency::.cpu.data     17999000                       # number of ReadSharedReq MSHR miss cycles
system.l2.ReadSharedReq_mshr_miss_latency::total     17999000                       # number of ReadSharedReq MSHR miss cycles
system.l2.ReadSharedReq_mshr_miss_rate::.cpu.data     0.014800                       # mshr miss rate for ReadSharedReq accesses
system.l2.ReadSharedReq_mshr_miss_rate::total     0.014800                       # mshr miss rate for ReadSharedReq accesses
system.l2.ReadSharedReq_avg_mshr_miss_latency::.cpu.data 77248.927039                       # average ReadSharedReq mshr miss latency
system.l2.ReadSharedReq_avg_mshr_miss_latency::total 77248.927039                       # average ReadSharedReq mshr miss latency
system.l2.power_state.pwrStateResidencyTicks::UNDEFINED  64917394500                       # Cumulative time (in ticks) in various power states
system.l2.tags.tagsinuse                 27348.195248                       # Cycle average of tags in use
system.l2.tags.total_refs                     1445628                       # Total number of references to valid blocks.
system.l2.tags.sampled_refs                     39554                       # Sample count of references to valid blocks.
system.l2.tags.avg_refs                     36.548213                       # Average number of references to valid blocks.
system.l2.tags.warmup_cycle                     77000                       # Cycle when the warmup percentage was hit.
system.l2.tags.occ_blocks::.cpu.inst       507.950679                       # Average occupied blocks per requestor
system.l2.tags.occ_blocks::.cpu.data     26840.244569                       # Average occupied blocks per requestor
system.l2.tags.occ_percent::.cpu.inst        0.007751                       # Average percentage of cache occupancy
system.l2.tags.occ_percent::.cpu.data        0.409550                       # Average percentage of cache occupancy
system.l2.tags.occ_percent::total            0.417300                       # Average percentage of cache occupancy
system.l2.tags.occ_task_id_blocks::1024         39554                       # Occupied blocks per task id
system.l2.tags.age_task_id_blocks_1024::0            4                       # Occupied blocks per task id
system.l2.tags.age_task_id_blocks_1024::1           30                       # Occupied blocks per task id
system.l2.tags.age_task_id_blocks_1024::2          305                       # Occupied blocks per task id
system.l2.tags.age_task_id_blocks_1024::3         3066                       # Occupied blocks per task id
system.l2.tags.age_task_id_blocks_1024::4        36149                       # Occupied blocks per task id
system.l2.tags.occ_task_id_percent::1024     0.603546                       # Percentage of cache occupancy per task id
system.l2.tags.tag_accesses                  11604626                       # Number of tag accesses
system.l2.tags.data_accesses                 11604626                       # Number of data accesses
system.l2.tags.power_state.pwrStateResidencyTicks::UNDEFINED  64917394500                       # Cumulative time (in ticks) in various power states
system.mem_ctrls.avgPriority_.cpu.inst::samples       509.00                       # Average QoS priority value for accepted requests
system.mem_ctrls.avgPriority_.cpu.data::samples     39045.00                       # Average QoS priority value for accepted requests
system.mem_ctrls.priorityMinLatency      0.000000018750                       # per QoS priority minimum request to response latency (s)
system.mem_ctrls.priorityMaxLatency      0.000000576000                       # per QoS priority maximum request to response latency (s)
system.mem_ctrls.numReadWriteTurnArounds            0                       # Number of turnarounds from READ to WRITE
system.mem_ctrls.numWriteReadTurnArounds            0                       # Number of turnarounds from WRITE to READ
system.mem_ctrls.numStayReadState               95767                       # Number of times bus staying in READ state
system.mem_ctrls.numStayWriteState                  0                       # Number of times bus staying in WRITE state
system.mem_ctrls.readReqs                       39554                       # Number of read requests accepted
system.mem_ctrls.writeReqs                          0                       # Number of write requests accepted
system.mem_ctrls.readBursts                     39554                       # Number of controller read bursts, including those serviced by the write queue
system.mem_ctrls.writeBursts                        0                       # Number of controller write bursts, including those merged in the write queue
system.mem_ctrls.servicedByWrQ                      0                       # Number of controller read bursts serviced by the write queue
system.mem_ctrls.mergedWrBursts                     0                       # Number of controller write bursts merged with an existing one
system.mem_ctrls.neitherReadNorWriteReqs            0                       # Number of requests that are neither read nor write
system.mem_ctrls.avgRdQLen                       1.00                       # Average read queue length when enqueuing
system.mem_ctrls.avgWrQLen                       0.00                       # Average write queue length when enqueuing
system.mem_ctrls.numRdRetry                         0                       # Number of times read queue was full causing retry
system.mem_ctrls.numWrRetry                         0                       # Number of times write queue was full causing retry
system.mem_ctrls.readPktSize::0                     0                       # Read request sizes (log2)
system.mem_ctrls.readPktSize::1                     0                       # Read request sizes (log2)
system.mem_ctrls.readPktSize::2                     0                       # Read request sizes (log2)
system.mem_ctrls.readPktSize::3                     0                       # Read request sizes (log2)
system.mem_ctrls.readPktSize::4                     0                       # Read request sizes (log2)
system.mem_ctrls.readPktSize::5                     0                       # Read request sizes (log2)
system.mem_ctrls.readPktSize::6                 39554                       # Read request sizes (log2)
system.mem_ctrls.writePktSize::0                    0                       # Write request sizes (log2)
system.mem_ctrls.writePktSize::1                    0                       # Write request sizes (log2)
system.mem_ctrls.writePktSize::2                    0                       # Write request sizes (log2)
system.mem_ctrls.writePktSize::3                    0                       # Write request sizes (log2)
system.mem_ctrls.writePktSize::4                    0                       # Write request sizes (log2)
system.mem_ctrls.writePktSize::5                    0                       # Write request sizes (log2)
system.mem_ctrls.writePktSize::6                    0                       # Write request sizes (log2)
system.mem_ctrls.rdQLenPdf::0                   39463                       # What read queue length does an incoming req see
system.mem_ctrls.rdQLenPdf::1                      85                       # What read queue length does an incoming req see
system.mem_ctrls.rdQLenPdf::2                       6                       # What read queue length does an incoming req see
system.mem_ctrls.rdQLenPdf::3                       0                       # What read queue length does an incoming req see
system.mem_ctrls.rdQLenPdf::4                       0                       # What read queue length does an incoming req see
system.mem_ctrls.rdQLenPdf::5                       0                       # What read queue length does an incoming req see
system.mem_ctrls.rdQLenPdf::6                       0                       # What read queue length does an incoming req see
system.mem_ctrls.rdQLenPdf::7                       0                       # What read queue length does an incoming req see
system.mem_ctrls.rdQLenPdf::8                       0                       # What read queue length does an incoming req see
system.mem_ctrls.rdQLenPdf::9                       0                       # What read queue length does an incoming req see
system.mem_ctrls.rdQLenPdf::10                      0                       # What read queue length does an incoming req see
[...]
system.mem_ctrls.dram.bw_read::.cpu.data     38493227                       # Total read bandwidth from this memory (bytes/s)
system.mem_ctrls.dram.bw_read::total         38995034                       # Total read bandwidth from this memory (bytes/s)
system.mem_ctrls.dram.bw_inst_read::.cpu.inst       501807                       # Instruction read bandwidth from this memory (bytes/s)
system.mem_ctrls.dram.bw_inst_read::total       501807                       # Instruction read bandwidth from this memory (bytes/s)
system.mem_ctrls.dram.bw_total::.cpu.inst       501807                       # Total bandwidth to/from this memory (bytes/s)
system.mem_ctrls.dram.bw_total::.cpu.data     38493227                       # Total bandwidth to/from this memory (bytes/s)
system.mem_ctrls.dram.bw_total::total        38995034                       # Total bandwidth to/from this memory (bytes/s)
system.mem_ctrls.dram.readBursts                39554                       # Number of DRAM read bursts
system.mem_ctrls.dram.writeBursts                   0                       # Number of DRAM write bursts
system.mem_ctrls.dram.perBankRdBursts::0         2504                       # Per bank write bursts
system.mem_ctrls.dram.perBankRdBursts::1         2477                       # Per bank write bursts
system.mem_ctrls.dram.perBankRdBursts::2         2454                       # Per bank write bursts
system.mem_ctrls.dram.perBankRdBursts::3         2546                       # Per bank write bursts
system.mem_ctrls.dram.perBankRdBursts::4         2460                       # Per bank write bursts
system.mem_ctrls.dram.perBankRdBursts::5         2370                       # Per bank write bursts
system.mem_ctrls.dram.perBankRdBursts::6         2412                       # Per bank write bursts
system.mem_ctrls.dram.perBankRdBursts::7         2460                       # Per bank write bursts
system.mem_ctrls.dram.perBankRdBursts::8         2455                       # Per bank write bursts
system.mem_ctrls.dram.perBankRdBursts::9         2487                       # Per bank write bursts
system.mem_ctrls.dram.perBankRdBursts::10         2469                       # Per bank write bursts
system.mem_ctrls.dram.perBankRdBursts::11         2495                       # Per bank write bursts
system.mem_ctrls.dram.perBankRdBursts::12         2487                       # Per bank write bursts
system.mem_ctrls.dram.perBankRdBursts::13         2455                       # Per bank write bursts
system.mem_ctrls.dram.perBankRdBursts::14         2541                       # Per bank write bursts
system.mem_ctrls.dram.perBankRdBursts::15         2482                       # Per bank write bursts
system.mem_ctrls.dram.perBankWrBursts::0            0                       # Per bank write bursts
system.mem_ctrls.dram.perBankWrBursts::1            0                       # Per bank write bursts
system.mem_ctrls.dram.perBankWrBursts::2            0                       # Per bank write bursts
system.mem_ctrls.dram.perBankWrBursts::3            0                       # Per bank write bursts
system.mem_ctrls.dram.perBankWrBursts::4            0                       # Per bank write bursts
system.mem_ctrls.dram.perBankWrBursts::5            0                       # Per bank write bursts
system.mem_ctrls.dram.perBankWrBursts::6            0                       # Per bank write bursts
system.mem_ctrls.dram.perBankWrBursts::7            0                       # Per bank write bursts
system.mem_ctrls.dram.perBankWrBursts::8            0                       # Per bank write bursts
system.mem_ctrls.dram.perBankWrBursts::9            0                       # Per bank write bursts
system.mem_ctrls.dram.perBankWrBursts::10            0                       # Per bank write bursts
system.mem_ctrls.dram.perBankWrBursts::11            0                       # Per bank write bursts
system.mem_ctrls.dram.perBankWrBursts::12            0                       # Per bank write bursts
system.mem_ctrls.dram.perBankWrBursts::13            0                       # Per bank write bursts
system.mem_ctrls.dram.perBankWrBursts::14            0                       # Per bank write bursts
system.mem_ctrls.dram.perBankWrBursts::15            0                       # Per bank write bursts
system.mem_ctrls.dram.totQLat               404260750                       # Total ticks spent queuing
system.mem_ctrls.dram.totBusLat             197770000                       # Total ticks spent in databus transfers
system.mem_ctrls.dram.totMemAccLat         1145898250                       # Total ticks spent from burst creation until serviced by the DRAM
system.mem_ctrls.dram.avgQLat                10220.48                       # Average queueing delay per DRAM burst
system.mem_ctrls.dram.avgBusLat               5000.00                       # Average bus latency per DRAM burst
system.mem_ctrls.dram.avgMemAccLat           28970.48                       # Average memory access latency per DRAM burst
system.mem_ctrls.dram.readRowHits               29460                       # Number of row buffer hits during reads
system.mem_ctrls.dram.writeRowHits                  0                       # Number of row buffer hits during writes
system.mem_ctrls.dram.readRowHitRate            74.48                       # Row buffer hit rate for reads
system.mem_ctrls.dram.writeRowHitRate             nan                       # Row buffer hit rate for writes
system.mem_ctrls.dram.bytesPerActivate::samples        10093                       # Bytes accessed per row activation
system.mem_ctrls.dram.bytesPerActivate::mean   250.800357                       # Bytes accessed per row activation
system.mem_ctrls.dram.bytesPerActivate::gmean   208.003415                       # Bytes accessed per row activation
system.mem_ctrls.dram.bytesPerActivate::stdev   186.221818                       # Bytes accessed per row activation
system.mem_ctrls.dram.bytesPerActivate::0-127          347      3.44%      3.44% # Bytes accessed per row activation
system.mem_ctrls.dram.bytesPerActivate::128-255         7367     72.99%     76.43% # Bytes accessed per row activation
system.mem_ctrls.dram.bytesPerActivate::256-383          730      7.23%     83.66% # Bytes accessed per row activation
system.mem_ctrls.dram.bytesPerActivate::384-511          281      2.78%     86.45% # Bytes accessed per row activation
system.mem_ctrls.dram.bytesPerActivate::512-639          591      5.86%     92.30% # Bytes accessed per row activation
system.mem_ctrls.dram.bytesPerActivate::640-767          345      3.42%     95.72% # Bytes accessed per row activation
system.mem_ctrls.dram.bytesPerActivate::768-895          216      2.14%     97.86% # Bytes accessed per row activation
system.mem_ctrls.dram.bytesPerActivate::896-1023          206      2.04%     99.90% # Bytes accessed per row activation
system.mem_ctrls.dram.bytesPerActivate::1024-1151           10      0.10%    100.00% # Bytes accessed per row activation
system.mem_ctrls.dram.bytesPerActivate::total        10093                       # Bytes accessed per row activation
system.mem_ctrls.dram.bytesRead               2531456                       # Total number of bytes read from DRAM
system.mem_ctrls.dram.bytesWritten                  0                       # Total number of bytes written to DRAM
system.mem_ctrls.dram.avgRdBW               38.995034                       # Average DRAM read bandwidth in MiBytes/s
system.mem_ctrls.dram.avgWrBW                       0                       # Average DRAM write bandwidth in MiBytes/s
system.mem_ctrls.dram.peakBW                 12800.00                       # Theoretical peak bandwidth in MiByte/s
system.mem_ctrls.dram.busUtil                    0.30                       # Data bus utilization in percentage
system.mem_ctrls.dram.busUtilRead                0.30                       # Data bus utilization in percentage for reads
system.mem_ctrls.dram.busUtilWrite               0.00                       # Data bus utilization in percentage for writes
system.mem_ctrls.dram.pageHitRate               74.48                       # Row buffer hit rate, read and write combined
system.mem_ctrls.dram.power_state.pwrStateResidencyTicks::UNDEFINED  64917394500                       # Cumulative time (in ticks) in various power states
system.mem_ctrls.dram.rank0.actEnergy        36471120                       # Energy for activate commands per rank (pJ)
system.mem_ctrls.dram.rank0.preEnergy        19381065                       # Energy for precharge commands per rank (pJ)
system.mem_ctrls.dram.rank0.readEnergy      140536620                       # Energy for read commands per rank (pJ)
system.mem_ctrls.dram.rank0.writeEnergy             0                       # Energy for write commands per rank (pJ)
system.mem_ctrls.dram.rank0.refreshEnergy 5124253680.000001                       # Energy for refresh commands per rank (pJ)
system.mem_ctrls.dram.rank0.actBackEnergy  13833156150                       # Energy for active background per rank (pJ)
system.mem_ctrls.dram.rank0.preBackEnergy  13279306080                       # Energy for precharge background per rank (pJ)
system.mem_ctrls.dram.rank0.actPowerDownEnergy            0                       # Energy for active power-down per rank (pJ)
system.mem_ctrls.dram.rank0.prePowerDownEnergy            0                       # Energy for precharge power-down per rank (pJ)
system.mem_ctrls.dram.rank0.selfRefreshEnergy            0                       # Energy for self refresh per rank (pJ)
system.mem_ctrls.dram.rank0.totalEnergy   32433104715                       # Total energy per rank (pJ)
system.mem_ctrls.dram.rank0.averagePower   499.605768                       # Core power per rank (mW)
system.mem_ctrls.dram.rank0.totalIdleTime            0                       # Total Idle time Per DRAM Rank
system.mem_ctrls.dram.rank0.pwrStateTime::IDLE  34405318000                       # Time in different power states
system.mem_ctrls.dram.rank0.pwrStateTime::REF   2167620000                       # Time in different power states
system.mem_ctrls.dram.rank0.pwrStateTime::SREF            0                       # Time in different power states
system.mem_ctrls.dram.rank0.pwrStateTime::PRE_PDN            0                       # Time in different power states
system.mem_ctrls.dram.rank0.pwrStateTime::ACT  28344456500                       # Time in different power states
system.mem_ctrls.dram.rank0.pwrStateTime::ACT_PDN            0                       # Time in different power states
system.mem_ctrls.dram.rank1.actEnergy        35600040                       # Energy for activate commands per rank (pJ)
system.mem_ctrls.dram.rank1.preEnergy        18921870                       # Energy for precharge commands per rank (pJ)
system.mem_ctrls.dram.rank1.readEnergy      141878940                       # Energy for read commands per rank (pJ)
system.mem_ctrls.dram.rank1.writeEnergy             0                       # Energy for write commands per rank (pJ)
system.mem_ctrls.dram.rank1.refreshEnergy 5124253680.000001                       # Energy for refresh commands per rank (pJ)
system.mem_ctrls.dram.rank1.actBackEnergy  13612173420                       # Energy for active background per rank (pJ)
system.mem_ctrls.dram.rank1.preBackEnergy  13465396800                       # Energy for precharge background per rank (pJ)
system.mem_ctrls.dram.rank1.actPowerDownEnergy            0                       # Energy for active power-down per rank (pJ)
system.mem_ctrls.dram.rank1.prePowerDownEnergy            0                       # Energy for precharge power-down per rank (pJ)
system.mem_ctrls.dram.rank1.selfRefreshEnergy            0                       # Energy for self refresh per rank (pJ)
system.mem_ctrls.dram.rank1.totalEnergy   32398224750                       # Total energy per rank (pJ)
system.mem_ctrls.dram.rank1.averagePower   499.068470                       # Core power per rank (mW)
system.mem_ctrls.dram.rank1.totalIdleTime            0                       # Total Idle time Per DRAM Rank
system.mem_ctrls.dram.rank1.pwrStateTime::IDLE  34891315000                       # Time in different power states
system.mem_ctrls.dram.rank1.pwrStateTime::REF   2167620000                       # Time in different power states
system.mem_ctrls.dram.rank1.pwrStateTime::SREF            0                       # Time in different power states
system.mem_ctrls.dram.rank1.pwrStateTime::PRE_PDN            0                       # Time in different power states
system.mem_ctrls.dram.rank1.pwrStateTime::ACT  27858459500                       # Time in different power states
system.mem_ctrls.dram.rank1.pwrStateTime::ACT_PDN            0                       # Time in different power states
system.mem_ctrls.power_state.pwrStateResidencyTicks::UNDEFINED  64917394500                       # Cumulative time (in ticks) in various power states
system.membus.trans_dist::ReadResp                742                       # Transaction distribution
system.membus.trans_dist::ReadExReq             38812                       # Transaction distribution
system.membus.trans_dist::ReadExResp            38812                       # Transaction distribution
system.membus.trans_dist::ReadSharedReq           742                       # Transaction distribution
system.membus.pkt_count_system.l2.mem_side_port::system.mem_ctrls.port        79108                       # Packet count per connected requestor and responder (bytes)
system.membus.pkt_count::total                  79108                       # Packet count per connected requestor and responder (bytes)
system.membus.pkt_size_system.l2.mem_side_port::system.mem_ctrls.port      2531456                       # Cumulative packet size per connected requestor and responder (bytes)
system.membus.pkt_size::total                 2531456                       # Cumulative packet size per connected requestor and responder (bytes)
system.membus.snoops                                0                       # Total snoops (count)
system.membus.snoopTraffic                          0                       # Total snoop traffic (bytes)
system.membus.snoop_fanout::samples             39554                       # Request fanout histogram
system.membus.snoop_fanout::mean                    0                       # Request fanout histogram
system.membus.snoop_fanout::stdev                   0                       # Request fanout histogram
system.membus.snoop_fanout::underflows              0      0.00%      0.00% # Request fanout histogram
system.membus.snoop_fanout::0                   39554    100.00%    100.00% # Request fanout histogram
system.membus.snoop_fanout::1                       0      0.00%    100.00% # Request fanout histogram
system.membus.snoop_fanout::overflows               0      0.00%    100.00% # Request fanout histogram
system.membus.snoop_fanout::min_value               0                       # Request fanout histogram
system.membus.snoop_fanout::max_value               0                       # Request fanout histogram
system.membus.snoop_fanout::total               39554                       # Request fanout histogram
system.membus.power_state.pwrStateResidencyTicks::UNDEFINED  64917394500                       # Cumulative time (in ticks) in various power states
system.membus.reqLayer0.occupancy            48470500                       # Layer occupancy (ticks)
system.membus.reqLayer0.utilization               0.1                       # Layer utilization (%)
system.membus.respLayer1.occupancy          209980500                       # Layer occupancy (ticks)
system.membus.respLayer1.utilization              0.3                       # Layer utilization (%)
system.tol2bus.trans_dist::ReadResp            684647                       # Transaction distribution
system.tol2bus.trans_dist::WritebackDirty        50228                       # Transaction distribution
system.tol2bus.trans_dist::WritebackClean       668506                       # Transaction distribution
system.tol2bus.trans_dist::CleanEvict            3424                       # Transaction distribution
system.tol2bus.trans_dist::ReadExReq            38933                       # Transaction distribution
system.tol2bus.trans_dist::ReadExResp           38933                       # Transaction distribution
system.tol2bus.trans_dist::ReadCleanReq        668904                       # Transaction distribution
system.tol2bus.trans_dist::ReadSharedReq        15743                       # Transaction distribution
system.tol2bus.pkt_count_system.cpu.icache.mem_side_port::system.l2.cpu_side_port      2006314                       # Packet count per connected requestor and responder (bytes)
system.tol2bus.pkt_count_system.cpu.dcache.mem_side_port::system.l2.cpu_side_port       163004                       # Packet count per connected requestor and responder (bytes)
system.tol2bus.pkt_count::total               2169318                       # Packet count per connected requestor and responder (bytes)
system.tol2bus.pkt_size_system.cpu.icache.mem_side_port::system.l2.cpu_side_port     85594240                       # Cumulative packet size per connected requestor and responder (bytes)
system.tol2bus.pkt_size_system.cpu.dcache.mem_side_port::system.l2.cpu_side_port      6713856                       # Cumulative packet size per connected requestor and responder (bytes)
system.tol2bus.pkt_size::total               92308096                       # Cumulative packet size per connected requestor and responder (bytes)
system.tol2bus.snoops                               0                       # Total snoops (count)
system.tol2bus.snoopTraffic                         0                       # Total snoop traffic (bytes)
system.tol2bus.snoop_fanout::samples           723580                       # Request fanout histogram
system.tol2bus.snoop_fanout::mean            0.000149                       # Request fanout histogram
system.tol2bus.snoop_fanout::stdev           0.012216                       # Request fanout histogram
system.tol2bus.snoop_fanout::underflows             0      0.00%      0.00% # Request fanout histogram
system.tol2bus.snoop_fanout::0                 723472     99.99%     99.99% # Request fanout histogram
system.tol2bus.snoop_fanout::1                    108      0.01%    100.00% # Request fanout histogram
system.tol2bus.snoop_fanout::2                      0      0.00%    100.00% # Request fanout histogram
system.tol2bus.snoop_fanout::overflows              0      0.00%    100.00% # Request fanout histogram
system.tol2bus.snoop_fanout::min_value              0                       # Request fanout histogram
system.tol2bus.snoop_fanout::max_value              1                       # Request fanout histogram
system.tol2bus.snoop_fanout::total             723580                       # Request fanout histogram
system.tol2bus.power_state.pwrStateResidencyTicks::UNDEFINED  64917394500                       # Cumulative time (in ticks) in various power states
system.tol2bus.reqLayer0.occupancy         1441603000                       # Layer occupancy (ticks)
system.tol2bus.reqLayer0.utilization              2.2                       # Layer utilization (%)
system.tol2bus.respLayer0.occupancy        1003356499                       # Layer occupancy (ticks)
system.tol2bus.respLayer0.utilization             1.5                       # Layer utilization (%)
system.tol2bus.respLayer1.occupancy          82016495                       # Layer occupancy (ticks)
system.tol2bus.respLayer1.utilization             0.1                       # Layer utilization (%)
system.voltage_domain.voltage                       1                       # Voltage in Volts

---------- End Simulation Statistics   ----------
