
---------- Begin Simulation Statistics ----------
final_tick                                  214987500                       # Number of ticks from beginning of simulation (restored from checkpoints and never reset)
host_inst_rate                                 289814                       # Simulator instruction rate (inst/s)
host_mem_usage                                 638732                       # Number of bytes of host memory used
host_op_rate                                   340753                       # Simulator op (including micro ops) rate (op/s)
host_seconds                                     0.08                       # Real time elapsed on the host
host_tick_rate                             2616314347                       # Simulator tick rate (ticks/s)
sim_freq                                 1000000000000                       # Frequency of simulated ticks
sim_insts                                       23761                       # Number of instructions simulated
sim_ops                                         27990                       # Number of ops (including micro ops) simulated
sim_seconds                                  0.000215                       # Number of seconds simulated
sim_ticks                                   214987500                       # Number of ticks simulated
system.cpu.Branches                              4854                       # Number of branches fetched
system.cpu.committedInsts                       23761                       # Number of instructions committed
system.cpu.committedOps                         27990                       # Number of ops (including micro ops) committed
system.cpu.idle_fraction                     0.000000                       # Percentage of idle cycles
system.cpu.not_idle_fraction                 1.000000                       # Percentage of non-idle cycles
system.cpu.numCycles                            85995                       # number of cpu cycles simulated
system.cpu.numWorkItemsCompleted                    0                       # number of work items this cpu completed
system.cpu.numWorkItemsStarted                      0                       # number of work items this cpu started
system.cpu.num_busy_cycles               85994.999600                       # Number of busy cycles
system.cpu.num_cc_register_reads               103854                       # number of times the CC registers were read
system.cpu.num_cc_register_writes               10459                       # number of times the CC registers were written
system.cpu.num_conditional_control_insts         3318                       # number of instructions that are conditional controls
system.cpu.num_fp_alu_accesses                      0                       # Number of float alu accesses
system.cpu.num_fp_insts                             0                       # number of float instructions
system.cpu.num_fp_register_reads                    0                       # number of times the floating registers were read
system.cpu.num_fp_register_writes                   0                       # number of times the floating registers were written
system.cpu.num_func_calls                        1181                       # number of times a function call or return occured
system.cpu.num_idle_cycles                   0.000400                       # Number of idle cycles
system.cpu.num_int_alu_accesses                 24766                       # Number of integer alu accesses
system.cpu.num_int_insts                        24766                       # number of integer instructions
system.cpu.num_int_register_reads               41510                       # number of times the integer registers were read
system.cpu.num_int_register_writes              16746                       # number of times the integer registers were written
system.cpu.num_load_insts                        6297                       # Number of load instructions
system.cpu.num_mem_refs                         11112                       # number of memory refs
system.cpu.num_store_insts                       4815                       # Number of store instructions
system.cpu.num_vec_alu_accesses                     0                       # Number of vector alu accesses
system.cpu.num_vec_insts                            0                       # number of vector instructions
system.cpu.num_vec_register_reads                  28                       # number of times the vector registers were read
system.cpu.num_vec_register_writes                  7                       # number of times the vector registers were written
system.cpu.op_class::No_OpClass                     0      0.00%      0.00% # Class of executed instruction
system.cpu.op_class::IntAlu                     17208     60.68%     60.68% # Class of executed instruction
system.cpu.op_class::IntMult                       29      0.10%     60.78% # Class of executed instruction
system.cpu.op_class::IntDiv                         0      0.00%     60.78% # Class of executed instruction
system.cpu.op_class::FloatAdd                       0      0.00%     60.78% # Class of executed instruction
system.cpu.op_class::FloatCmp                       0      0.00%     60.78% # Class of executed instruction
system.cpu.op_class::FloatCvt                       0      0.00%     60.78% # Class of executed instruction
system.cpu.op_class::FloatMult                      0      0.00%     60.78% # Class of executed instruction
system.cpu.op_class::FloatMultAcc                   0      0.00%     60.78% # Class of executed instruction
system.cpu.op_class::FloatDiv                       0      0.00%     60.78% # Class of executed instruction
system.cpu.op_class::FloatMisc                      0      0.00%     60.78% # Class of executed instruction
system.cpu.op_class::FloatSqrt                      0      0.00%     60.78% # Class of executed instruction
system.cpu.op_class::SimdAdd                        0      0.00%     60.78% # Class of executed instruction
system.cpu.op_class::SimdAddAcc                     0      0.00%     60.78% # Class of executed instruction
system.cpu.op_class::SimdAlu                        0      0.00%     60.78% # Class of executed instruction
system.cpu.op_class::SimdCmp                        0      0.00%     60.78% # Class of executed instruction
system.cpu.op_class::SimdCvt                        0      0.00%     60.78% # Class of executed instruction
system.cpu.op_class::SimdMisc                       0      0.00%     60.78% # Class of executed instruction
system.cpu.op_class::SimdMult                       0      0.00%     60.78% # Class of executed instruction
system.cpu.op_class::SimdMultAcc                    0      0.00%     60.78% # Class of executed instruction
system.cpu.op_class::SimdShift                      0      0.00%     60.78% # Class of executed instruction
system.cpu.op_class::SimdShiftAcc                   0      0.00%     60.78% # Class of executed instruction
system.cpu.op_class::SimdDiv                        0      0.00%     60.78% # Class of executed instruction
system.cpu.op_class::SimdSqrt                       0      0.00%     60.78% # Class of executed instruction
system.cpu.op_class::SimdFloatAdd                   0      0.00%     60.78% # Class of executed instruction
system.cpu.op_class::SimdFloatAlu                   0      0.00%     60.78% # Class of executed instruction
system.cpu.op_class::SimdFloatCmp                   0      0.00%     60.78% # Class of executed instruction
system.cpu.op_class::SimdFloatCvt                   0      0.00%     60.78% # Class of executed instruction
system.cpu.op_class::SimdFloatDiv                   0      0.00%     60.78% # Class of executed instruction
system.cpu.op_class::SimdFloatMisc                 11      0.04%     60.82% # Class of executed instruction
system.cpu.op_class::SimdFloatMult                  0      0.00%     60.82% # Class of executed instruction
system.cpu.op_class::SimdFloatMultAcc               0      0.00%     60.82% # Class of executed instruction
system.cpu.op_class::SimdFloatSqrt                  0      0.00%     60.82% # Class of executed instruction
system.cpu.op_class::SimdReduceAdd                  0      0.00%     60.82% # Class of executed instruction
system.cpu.op_class::SimdReduceAlu                  0      0.00%     60.82% # Class of executed instruction
system.cpu.op_class::SimdReduceCmp                  0      0.00%     60.82% # Class of executed instruction
system.cpu.op_class::SimdFloatReduceAdd             0      0.00%     60.82% # Class of executed instruction
system.cpu.op_class::SimdFloatReduceCmp             0      0.00%     60.82% # Class of executed instruction
system.cpu.op_class::SimdAes                        0      0.00%     60.82% # Class of executed instruction
system.cpu.op_class::SimdAesMix                     0      0.00%     60.82% # Class of executed instruction
system.cpu.op_class::SimdSha1Hash                   0      0.00%     60.82% # Class of executed instruction
system.cpu.op_class::SimdSha1Hash2                  0      0.00%     60.82% # Class of executed instruction
system.cpu.op_class::SimdSha256Hash                 0      0.00%     60.82% # Class of executed instruction
system.cpu.op_class::SimdSha256Hash2                0      0.00%     60.82% # Class of executed instruction
system.cpu.op_class::SimdShaSigma2                  0      0.00%     60.82% # Class of executed instruction
system.cpu.op_class::SimdShaSigma3                  0      0.00%     60.82% # Class of executed instruction
system.cpu.op_class::SimdPredAlu                    0      0.00%     60.82% # Class of executed instruction
system.cpu.op_class::MemRead                     6297     22.20%     83.02% # Class of executed instruction
system.cpu.op_class::MemWrite                    4815     16.98%    100.00% # Class of executed instruction
system.cpu.op_class::FloatMemRead                   0      0.00%    100.00% # Class of executed instruction
system.cpu.op_class::FloatMemWrite                  0      0.00%    100.00% # Class of executed instruction
system.cpu.op_class::IprAccess                      0      0.00%    100.00% # Class of executed instruction
system.cpu.op_class::InstPrefetch                   0      0.00%    100.00% # Class of executed instruction
system.cpu.op_class::total                      28360                       # Class of executed instruction
system.cpu.workload.numSyscalls                    36                       # Number of system calls
system.membus.snoop_filter.hit_multi_requests           28                       # Number of requests hitting in the snoop filter with multiple (>1) holders of the requested data.
system.membus.snoop_filter.hit_multi_snoops            0                       # Number of snoops hitting in the snoop filter with multiple (>1) holders of the requested data.
system.membus.snoop_filter.hit_single_requests          224                       # Number of requests hitting in the snoop filter with a single holder of the requested data.
system.membus.snoop_filter.hit_single_snoops            0                       # Number of snoops hitting in the snoop filter with a single holder of the requested data.
system.membus.snoop_filter.tot_requests           916                       # Total number of requests made to the snoop filter.
system.membus.snoop_filter.tot_snoops               0                       # Total number of snoops made to the snoop filter.
system.clk_domain.clock                          1000                       # Clock period in ticks
system.cpu.dcache.demand_hits::.cpu.data        10458                       # number of demand (read+write) hits
system.cpu.dcache.demand_hits::total            10458                       # number of demand (read+write) hits
system.cpu.dcache.overall_hits::.cpu.data        10462                       # number of overall hits
system.cpu.dcache.overall_hits::total           10462                       # number of overall hits
system.cpu.dcache.demand_misses::.cpu.data          214                       # number of demand (read+write) misses
system.cpu.dcache.demand_misses::total            214                       # number of demand (read+write) misses
system.cpu.dcache.overall_misses::.cpu.data          217                       # number of overall misses
system.cpu.dcache.overall_misses::total           217                       # number of overall misses
system.cpu.dcache.demand_miss_latency::.cpu.data     14547500                       # number of demand (read+write) miss cycles
system.cpu.dcache.demand_miss_latency::total     14547500                       # number of demand (read+write) miss cycles
system.cpu.dcache.overall_miss_latency::.cpu.data     14547500                       # number of overall miss cycles
system.cpu.dcache.overall_miss_latency::total     14547500                       # number of overall miss cycles
system.cpu.dcache.demand_accesses::.cpu.data        10672                       # number of demand (read+write) accesses
system.cpu.dcache.demand_accesses::total        10672                       # number of demand (read+write) accesses
system.cpu.dcache.overall_accesses::.cpu.data        10679                       # number of overall (read+write) accesses
system.cpu.dcache.overall_accesses::total        10679                       # number of overall (read+write) accesses
system.cpu.dcache.demand_miss_rate::.cpu.data     0.020052                       # miss rate for demand accesses
system.cpu.dcache.demand_miss_rate::total     0.020052                       # miss rate for demand accesses
system.cpu.dcache.overall_miss_rate::.cpu.data     0.020320                       # miss rate for overall accesses
system.cpu.dcache.overall_miss_rate::total     0.020320                       # miss rate for overall accesses
system.cpu.dcache.demand_avg_miss_latency::.cpu.data 67978.971963                       # average overall miss latency
system.cpu.dcache.demand_avg_miss_latency::total 67978.971963                       # average overall miss latency
system.cpu.dcache.overall_avg_miss_latency::.cpu.data 67039.170507                       # average overall miss latency
system.cpu.dcache.overall_avg_miss_latency::total 67039.170507                       # average overall miss latency
system.cpu.dcache.blocked_cycles::no_mshrs            0                       # number of cycles access was blocked
system.cpu.dcache.blocked_cycles::no_targets            0                       # number of cycles access was blocked
system.cpu.dcache.blocked::no_mshrs                 0                       # number of cycles access was blocked
system.cpu.dcache.blocked::no_targets               0                       # number of cycles access was blocked
system.cpu.dcache.avg_blocked_cycles::no_mshrs          nan                       # average number of cycles each access was blocked
system.cpu.dcache.avg_blocked_cycles::no_targets          nan                       # average number of cycles each access was blocked
system.cpu.dcache.demand_mshr_misses::.cpu.data          214                       # number of demand (read+write) MSHR misses
system.cpu.dcache.demand_mshr_misses::total          214                       # number of demand (read+write) MSHR misses
system.cpu.dcache.overall_mshr_misses::.cpu.data          217                       # number of overall MSHR misses
system.cpu.dcache.overall_mshr_misses::total          217                       # number of overall MSHR misses
system.cpu.dcache.demand_mshr_miss_latency::.cpu.data     13310500                       # number of demand (read+write) MSHR miss cycles
system.cpu.dcache.demand_mshr_miss_latency::total     13310500                       # number of demand (read+write) MSHR miss cycles
system.cpu.dcache.overall_mshr_miss_latency::.cpu.data     13488000                       # number of overall MSHR miss cycles
system.cpu.dcache.overall_mshr_miss_latency::total     13488000                       # number of overall MSHR miss cycles
system.cpu.dcache.demand_mshr_miss_rate::.cpu.data     0.020052                       # mshr miss rate for demand accesses
system.cpu.dcache.demand_mshr_miss_rate::total     0.020052                       # mshr miss rate for demand accesses
system.cpu.dcache.overall_mshr_miss_rate::.cpu.data     0.020320                       # mshr miss rate for overall accesses
system.cpu.dcache.overall_mshr_miss_rate::total     0.020320                       # mshr miss rate for overall accesses
system.cpu.dcache.demand_avg_mshr_miss_latency::.cpu.data 62198.598131                       # average overall mshr miss latency
system.cpu.dcache.demand_avg_mshr_miss_latency::total 62198.598131                       # average overall mshr miss latency
system.cpu.dcache.overall_avg_mshr_miss_latency::.cpu.data 62156.682028                       # average overall mshr miss latency
system.cpu.dcache.overall_avg_mshr_miss_latency::total 62156.682028                       # average overall mshr miss latency
system.cpu.dcache.replacements                      1                       # number of replacements
system.cpu.dcache.ReadReq_hits::.cpu.data         6002                       # number of ReadReq hits
system.cpu.dcache.ReadReq_hits::total            6002                       # number of ReadReq hits
system.cpu.dcache.ReadReq_misses::.cpu.data          150                       # number of ReadReq misses
system.cpu.dcache.ReadReq_misses::total           150                       # number of ReadReq misses
system.cpu.dcache.ReadReq_miss_latency::.cpu.data     10142500                       # number of ReadReq miss cycles
system.cpu.dcache.ReadReq_miss_latency::total     10142500                       # number of ReadReq miss cycles
system.cpu.dcache.ReadReq_accesses::.cpu.data         6152                       # number of ReadReq accesses(hits+misses)
system.cpu.dcache.ReadReq_accesses::total         6152                       # number of ReadReq accesses(hits+misses)
system.cpu.dcache.ReadReq_miss_rate::.cpu.data     0.024382                       # miss rate for ReadReq accesses
system.cpu.dcache.ReadReq_miss_rate::total     0.024382                       # miss rate for ReadReq accesses
system.cpu.dcache.ReadReq_avg_miss_latency::.cpu.data 67616.666667                       # average ReadReq miss latency
system.cpu.dcache.ReadReq_avg_miss_latency::total 67616.666667                       # average ReadReq miss latency
system.cpu.dcache.ReadReq_mshr_misses::.cpu.data          150                       # number of ReadReq MSHR misses
system.cpu.dcache.ReadReq_mshr_misses::total          150                       # number of ReadReq MSHR misses
system.cpu.dcache.ReadReq_mshr_miss_latency::.cpu.data      9276500                       # number of ReadReq MSHR miss cycles
system.cpu.dcache.ReadReq_mshr_miss_latency::total      9276500                       # number of ReadReq MSHR miss cycles
system.cpu.dcache.ReadReq_mshr_miss_rate::.cpu.data     0.024382                       # mshr miss rate for ReadReq accesses
system.cpu.dcache.ReadReq_mshr_miss_rate::total     0.024382                       # mshr miss rate for ReadReq accesses
system.cpu.dcache.ReadReq_avg_mshr_miss_latency::.cpu.data 61843.333333                       # average ReadReq mshr miss latency
system.cpu.dcache.ReadReq_avg_mshr_miss_latency::total 61843.333333                       # average ReadReq mshr miss latency
system.cpu.dcache.WriteReq_hits::.cpu.data         4456                       # number of WriteReq hits
system.cpu.dcache.WriteReq_hits::total           4456                       # number of WriteReq hits
system.cpu.dcache.WriteReq_misses::.cpu.data           64                       # number of WriteReq misses
system.cpu.dcache.WriteReq_misses::total           64                       # number of WriteReq misses
system.cpu.dcache.WriteReq_miss_latency::.cpu.data      4405000                       # number of WriteReq miss cycles
system.cpu.dcache.WriteReq_miss_latency::total      4405000                       # number of WriteReq miss cycles
system.cpu.dcache.WriteReq_accesses::.cpu.data         4520                       # number of WriteReq accesses(hits+misses)
system.cpu.dcache.WriteReq_accesses::total         4520                       # number of WriteReq accesses(hits+misses)
system.cpu.dcache.WriteReq_miss_rate::.cpu.data     0.014159                       # miss rate for WriteReq accesses
system.cpu.dcache.WriteReq_miss_rate::total     0.014159                       # miss rate for WriteReq accesses
system.cpu.dcache.WriteReq_avg_miss_latency::.cpu.data 68828.125000                       # average WriteReq miss latency
system.cpu.dcache.WriteReq_avg_miss_latency::total 68828.125000                       # average WriteReq miss latency
system.cpu.dcache.WriteReq_mshr_misses::.cpu.data           64                       # number of WriteReq MSHR misses
system.cpu.dcache.WriteReq_mshr_misses::total           64                       # number of WriteReq MSHR misses
system.cpu.dcache.WriteReq_mshr_miss_latency::.cpu.data      4034000                       # number of WriteReq MSHR miss cycles
system.cpu.dcache.WriteReq_mshr_miss_latency::total      4034000                       # number of WriteReq MSHR miss cycles
system.cpu.dcache.WriteReq_mshr_miss_rate::.cpu.data     0.014159                       # mshr miss rate for WriteReq accesses
system.cpu.dcache.WriteReq_mshr_miss_rate::total     0.014159                       # mshr miss rate for WriteReq accesses
system.cpu.dcache.WriteReq_avg_mshr_miss_latency::.cpu.data 63031.250000                       # average WriteReq mshr miss latency
system.cpu.dcache.WriteReq_avg_mshr_miss_latency::total 63031.250000                       # average WriteReq mshr miss latency
system.cpu.dcache.SoftPFReq_hits::.cpu.data            4                       # number of SoftPFReq hits
system.cpu.dcache.SoftPFReq_hits::total             4                       # number of SoftPFReq hits
system.cpu.dcache.SoftPFReq_misses::.cpu.data            3                       # number of SoftPFReq misses
system.cpu.dcache.SoftPFReq_misses::total            3                       # number of SoftPFReq misses
system.cpu.dcache.SoftPFReq_accesses::.cpu.data            7                       # number of SoftPFReq accesses(hits+misses)
system.cpu.dcache.SoftPFReq_accesses::total            7                       # number of SoftPFReq accesses(hits+misses)
system.cpu.dcache.SoftPFReq_miss_rate::.cpu.data     0.428571                       # miss rate for SoftPFReq accesses
system.cpu.dcache.SoftPFReq_miss_rate::total     0.428571                       # miss rate for SoftPFReq accesses
system.cpu.dcache.SoftPFReq_mshr_misses::.cpu.data            3                       # number of SoftPFReq MSHR misses
system.cpu.dcache.SoftPFReq_mshr_misses::total            3                       # number of SoftPFReq MSHR misses
system.cpu.dcache.SoftPFReq_mshr_miss_latency::.cpu.data       177500                       # number of SoftPFReq MSHR miss cycles
system.cpu.dcache.SoftPFReq_mshr_miss_latency::total       177500                       # number of SoftPFReq MSHR miss cycles
system.cpu.dcache.SoftPFReq_mshr_miss_rate::.cpu.data     0.428571                       # mshr miss rate for SoftPFReq accesses
system.cpu.dcache.SoftPFReq_mshr_miss_rate::total     0.428571                       # mshr miss rate for SoftPFReq accesses
system.cpu.dcache.SoftPFReq_avg_mshr_miss_latency::.cpu.data 59166.666667                       # average SoftPFReq mshr miss latency
system.cpu.dcache.SoftPFReq_avg_mshr_miss_latency::total 59166.666667                       # average SoftPFReq mshr miss latency
system.cpu.dcache.LoadLockedReq_hits::.cpu.data           67                       # number of LoadLockedReq hits
system.cpu.dcache.LoadLockedReq_hits::total           67                       # number of LoadLockedReq hits
system.cpu.dcache.LoadLockedReq_misses::.cpu.data            1                       # number of LoadLockedReq misses
system.cpu.dcache.LoadLockedReq_misses::total            1                       # number of LoadLockedReq misses
system.cpu.dcache.LoadLockedReq_miss_latency::.cpu.data        87500                       # number of LoadLockedReq miss cycles
system.cpu.dcache.LoadLockedReq_miss_latency::total        87500                       # number of LoadLockedReq miss cycles
system.cpu.dcache.LoadLockedReq_accesses::.cpu.data           68                       # number of LoadLockedReq accesses(hits+misses)
system.cpu.dcache.LoadLockedReq_accesses::total           68                       # number of LoadLockedReq accesses(hits+misses)
system.cpu.dcache.LoadLockedReq_miss_rate::.cpu.data     0.014706                       # miss rate for LoadLockedReq accesses
system.cpu.dcache.LoadLockedReq_miss_rate::total     0.014706                       # miss rate for LoadLockedReq accesses
system.cpu.dcache.LoadLockedReq_avg_miss_latency::.cpu.data        87500                       # average LoadLockedReq miss latency
system.cpu.dcache.LoadLockedReq_avg_miss_latency::total        87500                       # average LoadLockedReq miss latency
system.cpu.dcache.LoadLockedReq_mshr_misses::.cpu.data            1                       # number of LoadLockedReq MSHR misses
system.cpu.dcache.LoadLockedReq_mshr_misses::total            1                       # number of LoadLockedReq MSHR misses
system.cpu.dcache.LoadLockedReq_mshr_miss_latency::.cpu.data        82500                       # number of LoadLockedReq MSHR miss cycles
system.cpu.dcache.LoadLockedReq_mshr_miss_latency::total        82500                       # number of LoadLockedReq MSHR miss cycles
system.cpu.dcache.LoadLockedReq_mshr_miss_rate::.cpu.data     0.014706                       # mshr miss rate for LoadLockedReq accesses
system.cpu.dcache.LoadLockedReq_mshr_miss_rate::total     0.014706                       # mshr miss rate for LoadLockedReq accesses
system.cpu.dcache.LoadLockedReq_avg_mshr_miss_latency::.cpu.data        82500                       # average LoadLockedReq mshr miss latency
system.cpu.dcache.LoadLockedReq_avg_mshr_miss_latency::total        82500                       # average LoadLockedReq mshr miss latency
system.cpu.dcache.StoreCondReq_hits::.cpu.data           68                       # number of StoreCondReq hits
system.cpu.dcache.StoreCondReq_hits::total           68                       # number of StoreCondReq hits
system.cpu.dcache.StoreCondReq_accesses::.cpu.data           68                       # number of StoreCondReq accesses(hits+misses)
system.cpu.dcache.StoreCondReq_accesses::total           68                       # number of StoreCondReq accesses(hits+misses)
system.cpu.dcache.power_state.pwrStateResidencyTicks::UNDEFINED    214987500                       # Cumulative time (in ticks) in various power states
system.cpu.dcache.tags.tagsinuse           169.793414                       # Cycle average of tags in use
system.cpu.dcache.tags.total_refs               10815                       # Total number of references to valid blocks.
system.cpu.dcache.tags.sampled_refs               218                       # Sample count of references to valid blocks.
system.cpu.dcache.tags.avg_refs             49.610092                       # Average number of references to valid blocks.
system.cpu.dcache.tags.warmup_cycle            216000                       # Cycle when the warmup percentage was hit.
system.cpu.dcache.tags.occ_blocks::.cpu.data   169.793414                       # Average occupied blocks per requestor
system.cpu.dcache.tags.occ_percent::.cpu.data     0.165814                       # Average percentage of cache occupancy
system.cpu.dcache.tags.occ_percent::total     0.165814                       # Average percentage of cache occupancy
system.cpu.dcache.tags.occ_task_id_blocks::1024          217                       # Occupied blocks per task id
system.cpu.dcache.tags.age_task_id_blocks_1024::0           16                       # Occupied blocks per task id
system.cpu.dcache.tags.age_task_id_blocks_1024::2          201                       # Occupied blocks per task id
system.cpu.dcache.tags.occ_task_id_percent::1024     0.211914                       # Percentage of cache occupancy per task id
system.cpu.dcache.tags.tag_accesses             21848                       # Number of tag accesses
system.cpu.dcache.tags.data_accesses            21848                       # Number of data accesses
system.cpu.dcache.tags.power_state.pwrStateResidencyTicks::UNDEFINED    214987500                       # Cumulative time (in ticks) in various power states
system.cpu.dtb.instHits                             0                       # ITB inst hits
system.cpu.dtb.instMisses                           0                       # ITB inst misses
system.cpu.dtb.readHits                             0                       # DTB read hits
system.cpu.dtb.readMisses                           0                       # DTB read misses
system.cpu.dtb.writeHits                            0                       # DTB write hits
system.cpu.dtb.writeMisses                          0                       # DTB write misses
system.cpu.dtb.inserts                              0                       # Number of times an entry is inserted into the TLB
system.cpu.dtb.flushTlb                             0                       # Number of times complete TLB was flushed
system.cpu.dtb.flushTlbMva                          0                       # Number of times TLB was flushed by MVA
system.cpu.dtb.flushTlbMvaAsid                      0                       # Number of times TLB was flushed by MVA & ASID
system.cpu.dtb.flushTlbAsid                         0                       # Number of times TLB was flushed by ASID
system.cpu.dtb.flushedEntries                       0                       # Number of entries that have been flushed from TLB
system.cpu.dtb.alignFaults                          0                       # Number of TLB faults due to alignment restrictions
system.cpu.dtb.prefetchFaults                       0                       # Number of TLB faults due to prefetch
system.cpu.dtb.domainFaults                         0                       # Number of TLB faults due to domain restrictions
system.cpu.dtb.permsFaults                          0                       # Number of TLB faults due to permissions restrictions
system.cpu.dtb.readAccesses                         0                       # DTB read accesses
system.cpu.dtb.writeAccesses                        0                       # DTB write accesses
system.cpu.dtb.instAccesses                         0                       # ITB inst accesses
system.cpu.dtb.hits                                 0                       # Total TLB (inst and data) hits
system.cpu.dtb.misses                               0                       # Total TLB (inst and data) misses
system.cpu.dtb.accesses                             0                       # Total TLB (inst and data) accesses
system.cpu.dtb.stage2_mmu.stage2_tlb.instHits            0                       # ITB inst hits
system.cpu.dtb.stage2_mmu.stage2_tlb.instMisses            0                       # ITB inst misses
system.cpu.dtb.stage2_mmu.stage2_tlb.readHits            0                       # DTB read hits
system.cpu.dtb.stage2_mmu.stage2_tlb.readMisses            0                       # DTB read misses
system.cpu.dtb.stage2_mmu.stage2_tlb.writeHits            0                       # DTB write hits
system.cpu.dtb.stage2_mmu.stage2_tlb.writeMisses            0                       # DTB write misses
system.cpu.dtb.stage2_mmu.stage2_tlb.inserts            0                       # Number of times an entry is inserted into the TLB
system.cpu.dtb.stage2_mmu.stage2_tlb.flushTlb            0                       # Number of times complete TLB was flushed
system.cpu.dtb.stage2_mmu.stage2_tlb.flushTlbMva            0                       # Number of times TLB was flushed by MVA
system.cpu.dtb.stage2_mmu.stage2_tlb.flushTlbMvaAsid            0                       # Number of times TLB was flushed by MVA & ASID
system.cpu.dtb.stage2_mmu.stage2_tlb.flushTlbAsid            0                       # Number of times TLB was flushed by ASID
system.cpu.dtb.stage2_mmu.stage2_tlb.flushedEntries            0                       # Number of entries that have been flushed from TLB
system.cpu.dtb.stage2_mmu.stage2_tlb.alignFaults            0                       # Number of TLB faults due to alignment restrictions
system.cpu.dtb.stage2_mmu.stage2_tlb.prefetchFaults            0                       # Number of TLB faults due to prefetch
system.cpu.dtb.stage2_mmu.stage2_tlb.domainFaults            0                       # Number of TLB faults due to domain restrictions
system.cpu.dtb.stage2_mmu.stage2_tlb.permsFaults            0                       # Number of TLB faults due to permissions restrictions
system.cpu.dtb.stage2_mmu.stage2_tlb.readAccesses            0                       # DTB read accesses
system.cpu.dtb.stage2_mmu.stage2_tlb.writeAccesses            0                       # DTB write accesses
system.cpu.dtb.stage2_mmu.stage2_tlb.instAccesses            0                       # ITB inst accesses
system.cpu.dtb.stage2_mmu.stage2_tlb.hits            0                       # Total TLB (inst and data) hits
system.cpu.dtb.stage2_mmu.stage2_tlb.misses            0                       # Total TLB (inst and data) misses
system.cpu.dtb.stage2_mmu.stage2_tlb.accesses            0                       # Total TLB (inst and data) accesses
system.cpu.dtb.stage2_mmu.stage2_tlb.walker.walks            0                       # Table walker walks requested
system.cpu.dtb.stage2_mmu.stage2_tlb.walker.requestOrigin_Requested::Data            0                       # Table walker requests started/completed, data/inst
system.cpu.dtb.stage2_mmu.stage2_tlb.walker.requestOrigin_Requested::Inst            0                       # Table walker requests started/completed, data/inst
system.cpu.dtb.stage2_mmu.stage2_tlb.walker.requestOrigin_Requested::total            0                       # Table walker requests started/completed, data/inst
system.cpu.dtb.stage2_mmu.stage2_tlb.walker.requestOrigin_Completed::Data            0                       # Table walker requests started/completed, data/inst
system.cpu.dtb.stage2_mmu.stage2_tlb.walker.requestOrigin_Completed::Inst            0                       # Table walker requests started/completed, data/inst
system.cpu.dtb.stage2_mmu.stage2_tlb.walker.requestOrigin_Completed::total            0                       # Table walker requests started/completed, data/inst
system.cpu.dtb.stage2_mmu.stage2_tlb.walker.requestOrigin::total            0                       # Table walker requests started/completed, data/inst
system.cpu.dtb.stage2_mmu.stage2_tlb.walker.power_state.pwrStateResidencyTicks::UNDEFINED    214987500                       # Cumulative time (in ticks) in various power states
system.cpu.dtb.walker.walks                         0                       # Table walker walks requested
system.cpu.dtb.walker.requestOrigin_Requested::Data            0                       # Table walker requests started/completed, data/inst
system.cpu.dtb.walker.requestOrigin_Requested::Inst            0                       # Table walker requests started/completed, data/inst
system.cpu.dtb.walker.requestOrigin_Requested::total            0                       # Table walker requests started/completed, data/inst
system.cpu.dtb.walker.requestOrigin_Completed::Data            0                       # Table walker requests started/completed, data/inst
system.cpu.dtb.walker.requestOrigin_Completed::Inst            0                       # Table walker requests started/completed, data/inst
system.cpu.dtb.walker.requestOrigin_Completed::total            0                       # Table walker requests started/completed, data/inst
system.cpu.dtb.walker.requestOrigin::total            0                       # Table walker requests started/completed, data/inst
system.cpu.dtb.walker.power_state.pwrStateResidencyTicks::UNDEFINED    214987500                       # Cumulative time (in ticks) in various power states
system.cpu.icache.demand_hits::.cpu.inst        23513                       # number of demand (read+write) hits
system.cpu.icache.demand_hits::total            23513                       # number of demand (read+write) hits
system.cpu.icache.overall_hits::.cpu.inst        23513                       # number of overall hits
system.cpu.icache.overall_hits::total           23513                       # number of overall hits
system.cpu.icache.demand_misses::.cpu.inst          507                       # number of demand (read+write) misses
system.cpu.icache.demand_misses::total            507                       # number of demand (read+write) misses
system.cpu.icache.overall_misses::.cpu.inst          507                       # number of overall misses
system.cpu.icache.overall_misses::total           507                       # number of overall misses
system.cpu.icache.demand_miss_latency::.cpu.inst     29880000                       # number of demand (read+write) miss cycles
system.cpu.icache.demand_miss_latency::total     29880000                       # number of demand (read+write) miss cycles
system.cpu.icache.overall_miss_latency::.cpu.inst     29880000                       # number of overall miss cycles
system.cpu.icache.overall_miss_latency::total     29880000                       # number of overall miss cycles
system.cpu.icache.demand_accesses::.cpu.inst        24020                       # number of demand (read+write) accesses
system.cpu.icache.demand_accesses::total        24020                       # number of demand (read+write) accesses
system.cpu.icache.overall_accesses::.cpu.inst        24020                       # number of overall (read+write) accesses
system.cpu.icache.overall_accesses::total        24020                       # number of overall (read+write) accesses
system.cpu.icache.demand_miss_rate::.cpu.inst     0.021107                       # miss rate for demand accesses
system.cpu.icache.demand_miss_rate::total     0.021107                       # miss rate for demand accesses
system.cpu.icache.overall_miss_rate::.cpu.inst     0.021107                       # miss rate for overall accesses
system.cpu.icache.overall_miss_rate::total     0.021107                       # miss rate for overall accesses
system.cpu.icache.demand_avg_miss_latency::.cpu.inst 58934.911243                       # average overall miss latency
system.cpu.icache.demand_avg_miss_latency::total 58934.911243                       # average overall miss latency
system.cpu.icache.overall_avg_miss_latency::.cpu.inst 58934.911243                       # average overall miss latency
system.cpu.icache.overall_avg_miss_latency::total 58934.911243                       # average overall miss latency
system.cpu.icache.blocked_cycles::no_mshrs            0                       # number of cycles access was blocked
system.cpu.icache.blocked_cycles::no_targets            0                       # number of cycles access was blocked
system.cpu.icache.blocked::no_mshrs                 0                       # number of cycles access was blocked
system.cpu.icache.blocked::no_targets               0                       # number of cycles access was blocked
system.cpu.icache.avg_blocked_cycles::no_mshrs          nan                       # average number of cycles each access was blocked
system.cpu.icache.avg_blocked_cycles::no_targets          nan                       # average number of cycles each access was blocked
system.cpu.icache.writebacks::.writebacks          190                       # number of writebacks
system.cpu.icache.writebacks::total               190                       # number of writebacks
system.cpu.icache.demand_mshr_misses::.cpu.inst          507                       # number of demand (read+write) MSHR misses
system.cpu.icache.demand_mshr_misses::total          507                       # number of demand (read+write) MSHR misses
system.cpu.icache.overall_mshr_misses::.cpu.inst          507                       # number of overall MSHR misses
system.cpu.icache.overall_mshr_misses::total          507                       # number of overall MSHR misses
system.cpu.icache.demand_mshr_miss_latency::.cpu.inst     26961000                       # number of demand (read+write) MSHR miss cycles
system.cpu.icache.demand_mshr_miss_latency::total     26961000                       # number of demand (read+write) MSHR miss cycles
system.cpu.icache.overall_mshr_miss_latency::.cpu.inst     26961000                       # number of overall MSHR miss cycles
system.cpu.icache.overall_mshr_miss_latency::total     26961000                       # number of overall MSHR miss cycles
system.cpu.icache.demand_mshr_miss_rate::.cpu.inst     0.021107                       # mshr miss rate for demand accesses
system.cpu.icache.demand_mshr_miss_rate::total     0.021107                       # mshr miss rate for demand accesses
system.cpu.icache.overall_mshr_miss_rate::.cpu.inst     0.021107                       # mshr miss rate for overall accesses
system.cpu.icache.overall_mshr_miss_rate::total     0.021107                       # mshr miss rate for overall accesses
system.cpu.icache.demand_avg_mshr_miss_latency::.cpu.inst 53177.514793                       # average overall mshr miss latency
system.cpu.icache.demand_avg_mshr_miss_latency::total 53177.514793                       # average overall mshr miss latency
system.cpu.icache.overall_avg_mshr_miss_latency::.cpu.inst 53177.514793                       # average overall mshr miss latency
system.cpu.icache.overall_avg_mshr_miss_latency::total 53177.514793                       # average overall mshr miss latency
system.cpu.icache.replacements                    190                       # number of replacements
system.cpu.icache.ReadReq_hits::.cpu.inst        23513                       # number of ReadReq hits
system.cpu.icache.ReadReq_hits::total           23513                       # number of ReadReq hits
system.cpu.icache.ReadReq_misses::.cpu.inst          507                       # number of ReadReq misses
system.cpu.icache.ReadReq_misses::total           507                       # number of ReadReq misses
system.cpu.icache.ReadReq_miss_latency::.cpu.inst     29880000                       # number of ReadReq miss cycles
system.cpu.icache.ReadReq_miss_latency::total     29880000                       # number of ReadReq miss cycles
system.cpu.icache.ReadReq_accesses::.cpu.inst        24020                       # number of ReadReq accesses(hits+misses)
system.cpu.icache.ReadReq_accesses::total        24020                       # number of ReadReq accesses(hits+misses)
system.cpu.icache.ReadReq_miss_rate::.cpu.inst     0.021107                       # miss rate for ReadReq accesses
system.cpu.icache.ReadReq_miss_rate::total     0.021107                       # miss rate for ReadReq accesses
system.cpu.icache.ReadReq_avg_miss_latency::.cpu.inst 58934.911243                       # average ReadReq miss latency
system.cpu.icache.ReadReq_avg_miss_latency::total 58934.911243                       # average ReadReq miss latency
system.cpu.icache.ReadReq_mshr_misses::.cpu.inst          507                       # number of ReadReq MSHR misses
system.cpu.icache.ReadReq_mshr_misses::total          507                       # number of ReadReq MSHR misses
system.cpu.icache.ReadReq_mshr_miss_latency::.cpu.inst     26961000                       # number of ReadReq MSHR miss cycles
system.cpu.icache.ReadReq_mshr_miss_latency::total     26961000                       # number of ReadReq MSHR miss cycles
system.cpu.icache.ReadReq_mshr_miss_rate::.cpu.inst     0.021107                       # mshr miss rate for ReadReq accesses
system.cpu.icache.ReadReq_mshr_miss_rate::total     0.021107                       # mshr miss rate for ReadReq accesses
system.cpu.icache.ReadReq_avg_mshr_miss_latency::.cpu.inst 53177.514793                       # average ReadReq mshr miss latency
system.cpu.icache.ReadReq_avg_mshr_miss_latency::total 53177.514793                       # average ReadReq mshr miss latency
system.cpu.icache.power_state.pwrStateResidencyTicks::UNDEFINED    214987500                       # Cumulative time (in ticks) in various power states
system.cpu.icache.tags.tagsinuse           224.493720                       # Cycle average of tags in use
system.cpu.icache.tags.total_refs               24020                       # Total number of references to valid blocks.
system.cpu.icache.tags.sampled_refs               507                       # Sample count of references to valid blocks.
system.cpu.icache.tags.avg_refs             47.376726                       # Average number of references to valid blocks.
system.cpu.icache.tags.warmup_cycle             77000                       # Cycle when the warmup percentage was hit.
system.cpu.icache.tags.occ_blocks::.cpu.inst   224.493720                       # Average occupied blocks per requestor
system.cpu.icache.tags.occ_percent::.cpu.inst     0.438464                       # Average percentage of cache occupancy
system.cpu.icache.tags.occ_percent::total     0.438464                       # Average percentage of cache occupancy
system.cpu.icache.tags.occ_task_id_blocks::1024          317                       # Occupied blocks per task id
system.cpu.icache.tags.age_task_id_blocks_1024::0           49                       # Occupied blocks per task id
system.cpu.icache.tags.age_task_id_blocks_1024::1            4                       # Occupied blocks per task id
system.cpu.icache.tags.age_task_id_blocks_1024::2          264                       # Occupied blocks per task id
system.cpu.icache.tags.occ_task_id_percent::1024     0.619141                       # Percentage of cache occupancy per task id
system.cpu.icache.tags.tag_accesses             48547                       # Number of tag accesses
system.cpu.icache.tags.data_accesses            48547                       # Number of data accesses
system.cpu.icache.tags.power_state.pwrStateResidencyTicks::UNDEFINED    214987500                       # Cumulative time (in ticks) in various power states
system.cpu.itb.instHits                             0                       # ITB inst hits
system.cpu.itb.instMisses                           0                       # ITB inst misses
system.cpu.itb.readHits                             0                       # DTB read hits
system.cpu.itb.readMisses                           0                       # DTB read misses
system.cpu.itb.writeHits                            0                       # DTB write hits
system.cpu.itb.writeMisses                          0                       # DTB write misses
system.cpu.itb.inserts                              0                       # Number of times an entry is inserted into the TLB
system.cpu.itb.flushTlb                             0                       # Number of times complete TLB was flushed
system.cpu.itb.flushTlbMva                          0                       # Number of times TLB was flushed by MVA
system.cpu.itb.flushTlbMvaAsid                      0                       # Number of times TLB was flushed by MVA & ASID
system.cpu.itb.flushTlbAsid                         0                       # Number of times TLB was flushed by ASID
system.cpu.itb.flushedEntries                       0                       # Number of entries that have been flushed from TLB
system.cpu.itb.alignFaults                          0                       # Number of TLB faults due to alignment restrictions
system.cpu.itb.prefetchFaults                       0                       # Number of TLB faults due to prefetch
system.cpu.itb.domainFaults                         0                       # Number of TLB faults due to domain restrictions
system.cpu.itb.permsFaults                          0                       # Number of TLB faults due to permissions restrictions
system.cpu.itb.readAccesses                         0                       # DTB read accesses
system.cpu.itb.writeAccesses                        0                       # DTB write accesses
system.cpu.itb.instAccesses                         0                       # ITB inst accesses
system.cpu.itb.hits                                 0                       # Total TLB (inst and data) hits
system.cpu.itb.misses                               0                       # Total TLB (inst and data) misses
system.cpu.itb.accesses                             0                       # Total TLB (inst and data) accesses
system.cpu.itb.stage2_mmu.stage2_tlb.instHits            0                       # ITB inst hits
system.cpu.itb.stage2_mmu.stage2_tlb.instMisses            0                       # ITB inst misses
system.cpu.itb.stage2_mmu.stage2_tlb.readHits            0                       # DTB read hits
system.cpu.itb.stage2_mmu.stage2_tlb.readMisses            0                       # DTB read misses
system.cpu.itb.stage2_mmu.stage2_tlb.writeHits            0                       # DTB write hits
system.cpu.itb.stage2_mmu.stage2_tlb.writeMisses            0                       # DTB write misses
system.cpu.itb.stage2_mmu.stage2_tlb.inserts            0                       # Number of times an entry is inserted into the TLB
system.cpu.itb.stage2_mmu.stage2_tlb.flushTlb            0                       # Number of times complete TLB was flushed
system.cpu.itb.stage2_mmu.stage2_tlb.flushTlbMva            0                       # Number of times TLB was flushed by MVA
system.cpu.itb.stage2_mmu.stage2_tlb.flushTlbMvaAsid            0                       # Number of times TLB was flushed by MVA & ASID
system.cpu.itb.stage2_mmu.stage2_tlb.flushTlbAsid            0                       # Number of times TLB was flushed by ASID
system.cpu.itb.stage2_mmu.stage2_tlb.flushedEntries            0                       # Number of entries that have been flushed from TLB
system.cpu.itb.stage2_mmu.stage2_tlb.alignFaults            0                       # Number of TLB faults due to alignment restrictions
system.cpu.itb.stage2_mmu.stage2_tlb.prefetchFaults            0                       # Number of TLB faults due to prefetch
system.cpu.itb.stage2_mmu.stage2_tlb.domainFaults            0                       # Number of TLB faults due to domain restrictions
system.cpu.itb.stage2_mmu.stage2_tlb.permsFaults            0                       # Number of TLB faults due to permissions restrictions
system.cpu.itb.stage2_mmu.stage2_tlb.readAccesses            0                       # DTB read accesses
system.cpu.itb.stage2_mmu.stage2_tlb.writeAccesses            0                       # DTB write accesses
system.cpu.itb.stage2_mmu.stage2_tlb.instAccesses            0                       # ITB inst accesses
system.cpu.itb.stage2_mmu.stage2_tlb.hits            0                       # Total TLB (inst and data) hits
system.cpu.itb.stage2_mmu.stage2_tlb.misses            0                       # Total TLB (inst and data) misses
system.cpu.itb.stage2_mmu.stage2_tlb.accesses            0                       # Total TLB (inst and data) accesses
system.cpu.itb.stage2_mmu.stage2_tlb.walker.walks            0                       # Table walker walks requested
system.cpu.itb.stage2_mmu.stage2_tlb.walker.requestOrigin_Requested::Data            0                       # Table walker requests started/completed, data/inst
system.cpu.itb.stage2_mmu.stage2_tlb.walker.requestOrigin_Requested::Inst            0                       # Table walker requests started/completed, data/inst
system.cpu.itb.stage2_mmu.stage2_tlb.walker.requestOrigin_Requested::total            0                       # Table walker requests started/completed, data/inst
system.cpu.itb.stage2_mmu.stage2_tlb.walker.requestOrigin_Completed::Data            0                       # Table walker requests started/completed, data/inst
system.cpu.itb.stage2_mmu.stage2_tlb.walker.requestOrigin_Completed::Inst            0                       # Table walker requests started/completed, data/inst
system.cpu.itb.stage2_mmu.stage2_tlb.walker.requestOrigin_Completed::total            0                       # Table walker requests started/completed, data/inst
system.cpu.itb.stage2_mmu.stage2_tlb.walker.requestOrigin::total            0                       # Table walker requests started/completed, data/inst
system.cpu.itb.stage2_mmu.stage2_tlb.walker.power_state.pwrStateResidencyTicks::UNDEFINED    214987500                       # Cumulative time (in ticks) in various power states
system.cpu.itb.walker.walks                         0                       # Table walker walks requested
system.cpu.itb.walker.requestOrigin_Requested::Data            0                       # Table walker requests started/completed, data/inst
system.cpu.itb.walker.requestOrigin_Requested::Inst            0                       # Table walker requests started/completed, data/inst
system.cpu.itb.walker.requestOrigin_Requested::total            0                       # Table walker requests started/completed, data/inst
system.cpu.itb.walker.requestOrigin_Completed::Data            0                       # Table walker requests started/completed, data/inst
system.cpu.itb.walker.requestOrigin_Completed::Inst            0                       # Table walker requests started/completed, data/inst
system.cpu.itb.walker.requestOrigin_Completed::total            0                       # Table walker requests started/completed, data/inst
system.cpu.itb.walker.requestOrigin::total            0                       # Table walker requests started/completed, data/inst
system.cpu.itb.walker.power_state.pwrStateResidencyTicks::UNDEFINED    214987500                       # Cumulative time (in ticks) in various power states
system.cpu.power_state.pwrStateResidencyTicks::ON    214987500                       # Cumulative time (in ticks) in various power states
system.cpu.thread_0.numInsts                        0                       # Number of Instructions committed
system.cpu.thread_0.numOps                          0                       # Number of Ops committed
system.cpu.thread_0.numMemRefs                      0                       # Number of Memory References
system.cpu_clk_domain.clock                      2500                       # Clock period in ticks
system.cpu_voltage_domain.voltage                   1                       # Voltage in Volts
system.mem_ctrls.avgPriority_.writebacks::samples        40.00                       # Average QoS priority value for accepted requests
system.mem_ctrls.avgPriority_.cpu.inst::samples       376.00                       # Average QoS priority value for accepted requests
system.mem_ctrls.avgPriority_.cpu.data::samples       218.00                       # Average QoS priority value for accepted requests
system.mem_ctrls.priorityMinLatency      0.000000018750                       # per QoS priority minimum request to response latency (s)
system.mem_ctrls.priorityMaxLatency      0.000393207500                       # per QoS priority maximum request to response latency (s)
system.mem_ctrls.numReadWriteTurnArounds            1                       # Number of turnarounds from READ to WRITE
system.mem_ctrls.numWriteReadTurnArounds            1                       # Number of turnarounds from WRITE to READ
system.mem_ctrls.numStayReadState                1403                       # Number of times bus staying in READ state
system.mem_ctrls.numStayWriteState                 15                       # Number of times bus staying in WRITE state
system.mem_ctrls.readReqs                         725                       # Number of read requests accepted
system.mem_ctrls.writeReqs                        162                       # Number of write requests accepted
system.mem_ctrls.readBursts                       725                       # Number of controller read bursts, including those serviced by the write queue
system.mem_ctrls.writeBursts                      162                       # Number of controller write bursts, including those merged in the write queue
system.mem_ctrls.servicedByWrQ                    131                       # Number of controller read bursts serviced by the write queue
system.mem_ctrls.mergedWrBursts                   122                       # Number of controller write bursts merged with an existing one
system.mem_ctrls.neitherReadNorWriteReqs            0                       # Number of requests that are neither read nor write
system.mem_ctrls.avgRdQLen                       1.00                       # Average read queue length when enqueuing
system.mem_ctrls.avgWrQLen                      22.90                       # Average write queue length when enqueuing
system.mem_ctrls.numRdRetry                         0                       # Number of times read queue was full causing retry
system.mem_ctrls.numWrRetry                         0                       # Number of times write queue was full causing retry
system.mem_ctrls.readPktSize::0                     0                       # Read request sizes (log2)
system.mem_ctrls.readPktSize::1                     0                       # Read request sizes (log2)
system.mem_ctrls.readPktSize::2                     0                       # Read request sizes (log2)
system.mem_ctrls.readPktSize::3                     0                       # Read request sizes (log2)
system.mem_ctrls.readPktSize::4                     0                       # Read request sizes (log2)
system.mem_ctrls.readPktSize::5                     0                       # Read request sizes (log2)
system.mem_ctrls.readPktSize::6                   725                       # Read request sizes (log2)
system.mem_ctrls.writePktSize::0                    0                       # Write request sizes (log2)
system.mem_ctrls.writePktSize::1                    0                       # Write request sizes (log2)
system.mem_ctrls.writePktSize::2                    0                       # Write request sizes (log2)
system.mem_ctrls.writePktSize::3                    0                       # Write request sizes (log2)
system.mem_ctrls.writePktSize::4                    0                       # Write request sizes (log2)
system.mem_ctrls.writePktSize::5                    0                       # Write request sizes (log2)
system.mem_ctrls.writePktSize::6                  162                       # Write request sizes (log2)
system.mem_ctrls.rdQLenPdf::0                     594                       # What read queue length does an incoming req see
system.mem_ctrls.rdQLenPdf::1                       0                       # What read queue length does an incoming req see
system.mem_ctrls.rdQLenPdf::2                       0                       # What read queue length does an incoming req see
system.mem_ctrls.rdQLenPdf::3                       0                       # What read queue length does an incoming req see
system.mem_ctrls.rdQLenPdf::4                       0                       # What read queue length does an incoming req see
system.mem_ctrls.rdQLenPdf::5                       0                       # What read queue length does an incoming req see
system.mem_ctrls.rdQLenPdf::6                       0                       # What read queue length does an incoming req see
system.mem_ctrls.rdQLenPdf::7                       0                       # What read queue length does an incoming req see
system.mem_ctrls.rdQLenPdf::8                       0                       # What read queue length does an incoming req see
system.mem_ctrls.rdQLenPdf::9                       0                       # What read queue length does an incoming req see
system.mem_ctrls.rdQLenPdf::10                      0                       # What read queue length does an incoming req see
system.mem_ctrls.rdQLenPdf::11                      0                       # What read queue length does an incoming req see
system.mem_ctrls.rdQLenPdf::12                      0                       # What read queue length does an incoming req see
system.mem_ctrls.rdQLenPdf::13                      0                       # What read queue length does an incoming req see
system.mem_ctrls.rdQLenPdf::14                      0                       # What read queue length does an incoming req see
system.mem_ctrls.rdQLenPdf::15                      0                       # What read queue length does an incoming req see
system.mem_ctrls.rdQLenPdf::16                      0                       # What read queue length does an incoming req see
system.mem_ctrls.rdQLenPdf::17                      0                       # What read queue length does an incoming req see
system.mem_ctrls.rdQLenPdf::18                      0                       # What read queue length does an incoming req see
system.mem_ctrls.rdQLenPdf::19                      0                       # What read queue length does an incoming req see
system.mem_ctrls.rdQLenPdf::20                      0                       # What read queue length does an incoming req see
system.mem_ctrls.rdQLenPdf::21                      0                       # What read queue length does an incoming req see
system.mem_ctrls.rdQLenPdf::22                      0                       # What read queue length does an incoming req see
system.mem_ctrls.rdQLenPdf::23                      0                       # What read queue length does an incoming req see
system.mem_ctrls.rdQLenPdf::24                      0                       # What read queue length does an incoming req see
system.mem_ctrls.rdQLenPdf::25                      0                       # What read queue length does an incoming req see
system.mem_ctrls.rdQLenPdf::26                      0                       # What read queue length does an incoming req see
system.mem_ctrls.rdQLenPdf::27                      0                       # What read queue length does an incoming req see
system.mem_ctrls.rdQLenPdf::28                      0                       # What read queue length does an incoming req see
system.mem_ctrls.rdQLenPdf::29                      0                       # What read queue length does an incoming req see
system.mem_ctrls.rdQLenPdf::30                      0                       # What read queue length does an incoming req see
system.mem_ctrls.rdQLenPdf::31                      0                       # What read queue length does an incoming req see
system.mem_ctrls.wrQLenPdf::0                       1                       # What write queue length does an incoming req see
system.mem_ctrls.wrQLenPdf::1                       1                       # What write queue length does an incoming req see
system.mem_ctrls.wrQLenPdf::2                       1                       # What write queue length does an incoming req see
system.mem_ctrls.wrQLenPdf::3                       1                       # What write queue length does an incoming req see
system.mem_ctrls.wrQLenPdf::4                       1                       # What write queue length does an incoming req see
system.mem_ctrls.wrQLenPdf::5                       1                       # What write queue length does an incoming req see
system.mem_ctrls.wrQLenPdf::6                       1                       # What write queue length does an incoming req see
system.mem_ctrls.wrQLenPdf::7                       1                       # What write queue length does an incoming req see
system.mem_ctrls.wrQLenPdf::8                       1                       # What write queue length does an incoming req see
system.mem_ctrls.wrQLenPdf::9                       1                       # What write queue length does an incoming req see
system.mem_ctrls.wrQLenPdf::10                      1                       # What write queue length does an incoming req see
system.mem_ctrls.wrQLenPdf::11                      1                       # What write queue length does an incoming req see
system.mem_ctrls.wrQLenPdf::12                      1                       # What write queue length does an incoming req see
system.mem_ctrls.wrQLenPdf::13                      1                       # What write queue length does an incoming req see
system.mem_ctrls.wrQLenPdf::14                      1                       # What write queue length does an incoming req see
system.mem_ctrls.wrQLenPdf::15                      1                       # What write queue length does an incoming req see
system.mem_ctrls.wrQLenPdf::16                      1                       # What write queue length does an incoming req see
system.mem_ctrls.wrQLenPdf::17                      2                       # What write queue length does an incoming req see
system.mem_ctrls.wrQLenPdf::18                      2                       # What write queue length does an incoming req see
system.mem_ctrls.wrQLenPdf::19                      2                       # What write queue length does an incoming req see
system.mem_ctrls.wrQLenPdf::20                      2                       # What write queue length does an incoming req see
system.mem_ctrls.wrQLenPdf::21                      2                       # What write queue length does an incoming req see
system.mem_ctrls.wrQLenPdf::22                      2                       # What write queue length does an incoming req see
system.mem_ctrls.wrQLenPdf::23                      2                       # What write queue length does an incoming req see
system.mem_ctrls.wrQLenPdf::24                      1                       # What write queue length does an incoming req see
system.mem_ctrls.wrQLenPdf::25                      1                       # What write queue length does an incoming req see
system.mem_ctrls.wrQLenPdf::26                      1                       # What write queue length does an incoming req see
system.mem_ctrls.wrQLenPdf::27                      1                       # What write queue length does an incoming req see
system.mem_ctrls.wrQLenPdf::28                      1                       # What write queue length does an incoming req see
system.mem_ctrls.wrQLenPdf::29                      1                       # What write queue length does an incoming req see
system.mem_ctrls.wrQLenPdf::30                      1                       # What write queue length does an incoming req see
system.mem_ctrls.wrQLenPdf::31                      1                       # What write queue length does an incoming req see
system.mem_ctrls.wrQLenPdf::32                      1                       # What write queue length does an incoming req see
system.mem_ctrls.wrQLenPdf::33                      0                       # What write queue length does an incoming req see
system.mem_ctrls.wrQLenPdf::34                      0                       # What write queue length does an incoming req see
system.mem_ctrls.wrQLenPdf::35                      0                       # What write queue length does an incoming req see
system.mem_ctrls.wrQLenPdf::36                      0                       # What write queue length does an incoming req see
system.mem_ctrls.wrQLenPdf::37                      0                       # What write queue length does an incoming req see
system.mem_ctrls.wrQLenPdf::38                      0                       # What write queue length does an incoming req see
system.mem_ctrls.wrQLenPdf::39                      0                       # What write queue length does an incoming req see
system.mem_ctrls.wrQLenPdf::40                      0                       # What write queue length does an incoming req see
system.mem_ctrls.wrQLenPdf::41                      0                       # What write queue length does an incoming req see
system.mem_ctrls.wrQLenPdf::42                      0                       # What write queue length does an incoming req see
system.mem_ctrls.wrQLenPdf::43                      0                       # What write queue length does an incoming req see
system.mem_ctrls.wrQLenPdf::44                      0                       # What write queue length does an incoming req see
system.mem_ctrls.wrQLenPdf::45                      0                       # What write queue length does an incoming req see
system.mem_ctrls.wrQLenPdf::46                      0                       # What write queue length does an incoming req see
system.mem_ctrls.wrQLenPdf::47                      0                       # What write queue length does an incoming req see
system.mem_ctrls.wrQLenPdf::48                      0                       # What write queue length does an incoming req see
system.mem_ctrls.wrQLenPdf::49                      0                       # What write queue length does an incoming req see
system.mem_ctrls.wrQLenPdf::50                      0                       # What write queue length does an incoming req see
system.mem_ctrls.wrQLenPdf::51                      0                       # What write queue length does an incoming req see
system.mem_ctrls.wrQLenPdf::52                      0                       # What write queue length does an incoming req see
system.mem_ctrls.wrQLenPdf::53                      0                       # What write queue length does an incoming req see
system.mem_ctrls.wrQLenPdf::54                      0                       # What write queue length does an incoming req see
system.mem_ctrls.wrQLenPdf::55                      0                       # What write queue length does an incoming req see
system.mem_ctrls.wrQLenPdf::56                      0                       # What write queue length does an incoming req see
system.mem_ctrls.wrQLenPdf::57                      0                       # What write queue length does an incoming req see
system.mem_ctrls.wrQLenPdf::58                      0                       # What write queue length does an incoming req see
system.mem_ctrls.wrQLenPdf::59                      0                       # What write queue length does an incoming req see
system.mem_ctrls.wrQLenPdf::60                      0                       # What write queue length does an incoming req see
system.mem_ctrls.wrQLenPdf::61                      0                       # What write queue length does an incoming req see
system.mem_ctrls.wrQLenPdf::62                      0                       # What write queue length does an incoming req see
system.mem_ctrls.wrQLenPdf::63                      0                       # What write queue length does an incoming req see
system.mem_ctrls.rdPerTurnAround::samples            1                       # Reads before turning the bus around for writes
system.mem_ctrls.rdPerTurnAround::mean            533                       # Reads before turning the bus around for writes
system.mem_ctrls.rdPerTurnAround::gmean    533.000000                       # Reads before turning the bus around for writes
system.mem_ctrls.rdPerTurnAround::stdev           nan                       # Reads before turning the bus around for writes
system.mem_ctrls.rdPerTurnAround::512-543            1    100.00%    100.00% # Reads before turning the bus around for writes
system.mem_ctrls.rdPerTurnAround::total             1                       # Reads before turning the bus around for writes
system.mem_ctrls.wrPerTurnAround::samples            1                       # Writes before turning the bus around for reads
system.mem_ctrls.wrPerTurnAround::mean             16                       # Writes before turning the bus around for reads
system.mem_ctrls.wrPerTurnAround::gmean     16.000000                       # Writes before turning the bus around for reads
system.mem_ctrls.wrPerTurnAround::stdev           nan                       # Writes before turning the bus around for reads
system.mem_ctrls.wrPerTurnAround::16                1    100.00%    100.00% # Writes before turning the bus around for reads
system.mem_ctrls.wrPerTurnAround::total             1                       # Writes before turning the bus around for reads
system.mem_ctrls.bytesReadWrQ                    8384                       # Total number of bytes read from write queue
system.mem_ctrls.bytesReadSys                   46400                       # Total read bytes from the system interface side
system.mem_ctrls.bytesWrittenSys                10368                       # Total written bytes from the system interface side
system.mem_ctrls.avgRdBWSys                    215.83                       # Average system read bandwidth in MiByte/s
system.mem_ctrls.avgWrBWSys                     48.23                       # Average system write bandwidth in MiByte/s
system.mem_ctrls.totGap                     214887500                       # Total gap between requests
system.mem_ctrls.avgGap                     242263.25                       # Average gap between requests
system.mem_ctrls.requestorReadBytes::.cpu.inst        24064                       # Per-requestor bytes read from memory
system.mem_ctrls.requestorReadBytes::.cpu.data        13952                       # Per-requestor bytes read from memory
system.mem_ctrls.requestorWriteBytes::.writebacks         1024                       # Per-requestor bytes write to memory
system.mem_ctrls.requestorReadRate::.cpu.inst 111932089.074946224689                       # Per-requestor bytes read from memory rate (Bytes/sec)
system.mem_ctrls.requestorReadRate::.cpu.data 64896796.325367756188                       # Per-requestor bytes read from memory rate (Bytes/sec)
system.mem_ctrls.requestorWriteRate::.writebacks 4763067.620210478082                       # Per-requestor bytes write to memory rate (Bytes/sec)
system.mem_ctrls.requestorReadAccesses::.cpu.inst          507                       # Per-requestor read serviced memory accesses
system.mem_ctrls.requestorReadAccesses::.cpu.data          218                       # Per-requestor read serviced memory accesses
system.mem_ctrls.requestorWriteAccesses::.writebacks          162                       # Per-requestor write serviced memory accesses
system.mem_ctrls.requestorReadTotalLat::.cpu.inst     10038750                       # Per-requestor read total memory access latency
system.mem_ctrls.requestorReadTotalLat::.cpu.data      5728250                       # Per-requestor read total memory access latency
system.mem_ctrls.requestorWriteTotalLat::.writebacks   2259031250                       # Per-requestor write total memory access latency
system.mem_ctrls.requestorReadAvgLat::.cpu.inst     19800.30                       # Per-requestor read average memory access latency
system.mem_ctrls.requestorReadAvgLat::.cpu.data     26276.38                       # Per-requestor read average memory access latency
system.mem_ctrls.requestorWriteAvgLat::.writebacks  13944637.35                       # Per-requestor write average memory access latency
system.mem_ctrls.dram.bytes_read::.cpu.inst        32448                       # Number of bytes read from this memory
system.mem_ctrls.dram.bytes_read::.cpu.data        13952                       # Number of bytes read from this memory
system.mem_ctrls.dram.bytes_read::total         46400                       # Number of bytes read from this memory
system.mem_ctrls.dram.bytes_inst_read::.cpu.inst        32448                       # Number of instructions bytes read from this memory
system.mem_ctrls.dram.bytes_inst_read::total        32448                       # Number of instructions bytes read from this memory
system.mem_ctrls.dram.num_reads::.cpu.inst          507                       # Number of read requests responded to by this memory
system.mem_ctrls.dram.num_reads::.cpu.data          218                       # Number of read requests responded to by this memory
system.mem_ctrls.dram.num_reads::total            725                       # Number of read requests responded to by this memory
system.mem_ctrls.dram.bw_read::.cpu.inst    150929705                       # Total read bandwidth from this memory (bytes/s)
system.mem_ctrls.dram.bw_read::.cpu.data     64896796                       # Total read bandwidth from this memory (bytes/s)
system.mem_ctrls.dram.bw_read::total        215826502                       # Total read bandwidth from this memory (bytes/s)
system.mem_ctrls.dram.bw_inst_read::.cpu.inst    150929705                       # Instruction read bandwidth from this memory (bytes/s)
system.mem_ctrls.dram.bw_inst_read::total    150929705                       # Instruction read bandwidth from this memory (bytes/s)
system.mem_ctrls.dram.bw_total::.cpu.inst    150929705                       # Total bandwidth to/from this memory (bytes/s)
system.mem_ctrls.dram.bw_total::.cpu.data     64896796                       # Total bandwidth to/from this memory (bytes/s)
system.mem_ctrls.dram.bw_total::total       215826502                       # Total bandwidth to/from this memory (bytes/s)
system.mem_ctrls.dram.readBursts                  594                       # Number of DRAM read bursts
system.mem_ctrls.dram.writeBursts                  16                       # Number of DRAM write bursts
system.mem_ctrls.dram.perBankRdBursts::0           68                       # Per bank write bursts
system.mem_ctrls.dram.perBankRdBursts::1           66                       # Per bank write bursts
system.mem_ctrls.dram.perBankRdBursts::2           12                       # Per bank write bursts
system.mem_ctrls.dram.perBankRdBursts::3           38                       # Per bank write bursts
system.mem_ctrls.dram.perBankRdBursts::4           41                       # Per bank write bursts
system.mem_ctrls.dram.perBankRdBursts::5           15                       # Per bank write bursts
system.mem_ctrls.dram.perBankRdBursts::6            0                       # Per bank write bursts
system.mem_ctrls.dram.perBankRdBursts::7           31                       # Per bank write bursts
system.mem_ctrls.dram.perBankRdBursts::8           85                       # Per bank write bursts
system.mem_ctrls.dram.perBankRdBursts::9           60                       # Per bank write bursts
system.mem_ctrls.dram.perBankRdBursts::10           41                       # Per bank write bursts
system.mem_ctrls.dram.perBankRdBursts::11           30                       # Per bank write bursts
system.mem_ctrls.dram.perBankRdBursts::12           33                       # Per bank write bursts
system.mem_ctrls.dram.perBankRdBursts::13           15                       # Per bank write bursts
system.mem_ctrls.dram.perBankRdBursts::14           19                       # Per bank write bursts
system.mem_ctrls.dram.perBankRdBursts::15           40                       # Per bank write bursts
system.mem_ctrls.dram.perBankWrBursts::0            0                       # Per bank write bursts
system.mem_ctrls.dram.perBankWrBursts::1            0                       # Per bank write bursts
system.mem_ctrls.dram.perBankWrBursts::2            0                       # Per bank write bursts
system.mem_ctrls.dram.perBankWrBursts::3            1                       # Per bank write bursts
system.mem_ctrls.dram.perBankWrBursts::4            0                       # Per bank write bursts
system.mem_ctrls.dram.perBankWrBursts::5            0                       # Per bank write bursts
system.mem_ctrls.dram.perBankWrBursts::6            0                       # Per bank write bursts
system.mem_ctrls.dram.perBankWrBursts::7            0                       # Per bank write bursts
system.mem_ctrls.dram.perBankWrBursts::8            1                       # Per bank write bursts
system.mem_ctrls.dram.perBankWrBursts::9            0                       # Per bank write bursts
system.mem_ctrls.dram.perBankWrBursts::10            2                       # Per bank write bursts
system.mem_ctrls.dram.perBankWrBursts::11            5                       # Per bank write bursts
system.mem_ctrls.dram.perBankWrBursts::12            0                       # Per bank write bursts
system.mem_ctrls.dram.perBankWrBursts::13            4                       # Per bank write bursts
system.mem_ctrls.dram.perBankWrBursts::14            2                       # Per bank write bursts
system.mem_ctrls.dram.perBankWrBursts::15            1                       # Per bank write bursts
system.mem_ctrls.dram.totQLat                 4629500                       # Total ticks spent queuing
system.mem_ctrls.dram.totBusLat               2970000                       # Total ticks spent in databus transfers
system.mem_ctrls.dram.totMemAccLat           15767000                       # Total ticks spent from burst creation until serviced by the DRAM
system.mem_ctrls.dram.avgQLat                 7793.77                       # Average queueing delay per DRAM burst
system.mem_ctrls.dram.avgBusLat               5000.00                       # Average bus latency per DRAM burst
system.mem_ctrls.dram.avgMemAccLat           26543.77                       # Average memory access latency per DRAM burst
system.mem_ctrls.dram.readRowHits                 452                       # Number of row buffer hits during reads
system.mem_ctrls.dram.writeRowHits                 10                       # Number of row buffer hits during writes
system.mem_ctrls.dram.readRowHitRate            76.09                       # Row buffer hit rate for reads
system.mem_ctrls.dram.writeRowHitRate           62.50                       # Row buffer hit rate for writes
system.mem_ctrls.dram.bytesPerActivate::samples          143                       # Bytes accessed per row activation
system.mem_ctrls.dram.bytesPerActivate::mean   257.790210                       # Bytes accessed per row activation
system.mem_ctrls.dram.bytesPerActivate::gmean   172.606228                       # Bytes accessed per row activation
system.mem_ctrls.dram.bytesPerActivate::stdev   260.129406                       # Bytes accessed per row activation
system.mem_ctrls.dram.bytesPerActivate::0-127           45     31.47%     31.47% # Bytes accessed per row activation
system.mem_ctrls.dram.bytesPerActivate::128-255           43     30.07%     61.54% # Bytes accessed per row activation
system.mem_ctrls.dram.bytesPerActivate::256-383           23     16.08%     77.62% # Bytes accessed per row activation
system.mem_ctrls.dram.bytesPerActivate::384-511           13      9.09%     86.71% # Bytes accessed per row activation
system.mem_ctrls.dram.bytesPerActivate::512-639            4      2.80%     89.51% # Bytes accessed per row activation
system.mem_ctrls.dram.bytesPerActivate::640-767            3      2.10%     91.61% # Bytes accessed per row activation
system.mem_ctrls.dram.bytesPerActivate::768-895            2      1.40%     93.01% # Bytes accessed per row activation
system.mem_ctrls.dram.bytesPerActivate::896-1023            2      1.40%     94.41% # Bytes accessed per row activation
system.mem_ctrls.dram.bytesPerActivate::1024-1151            8      5.59%    100.00% # Bytes accessed per row activation
system.mem_ctrls.dram.bytesPerActivate::total          143                       # Bytes accessed per row activation
system.mem_ctrls.dram.bytesRead                 38016                       # Total number of bytes read from DRAM
system.mem_ctrls.dram.bytesWritten               1024                       # Total number of bytes written to DRAM
system.mem_ctrls.dram.avgRdBW              176.828885                       # Average DRAM read bandwidth in MiBytes/s
system.mem_ctrls.dram.avgWrBW                4.763068                       # Average DRAM write bandwidth in MiBytes/s
system.mem_ctrls.dram.peakBW                 12800.00                       # Theoretical peak bandwidth in MiByte/s
system.mem_ctrls.dram.busUtil                    1.42                       # Data bus utilization in percentage
system.mem_ctrls.dram.busUtilRead                1.38                       # Data bus utilization in percentage for reads
system.mem_ctrls.dram.busUtilWrite               0.04                       # Data bus utilization in percentage for writes
system.mem_ctrls.dram.pageHitRate               75.74                       # Row buffer hit rate, read and write combined
system.mem_ctrls.dram.power_state.pwrStateResidencyTicks::UNDEFINED    214987500                       # Cumulative time (in ticks) in various power states
system.mem_ctrls.dram.rank0.actEnergy          378420                       # Energy for activate commands per rank (pJ)
system.mem_ctrls.dram.rank0.preEnergy          197340                       # Energy for precharge commands per rank (pJ)
system.mem_ctrls.dram.rank0.readEnergy        1934940                       # Energy for read commands per rank (pJ)
system.mem_ctrls.dram.rank0.writeEnergy          5220                       # Energy for write commands per rank (pJ)
system.mem_ctrls.dram.rank0.refreshEnergy 16595280.000000                       # Energy for refresh commands per rank (pJ)
system.mem_ctrls.dram.rank0.actBackEnergy     40941390                       # Energy for active background per rank (pJ)
system.mem_ctrls.dram.rank0.preBackEnergy     48078240                       # Energy for precharge background per rank (pJ)
system.mem_ctrls.dram.rank0.actPowerDownEnergy            0                       # Energy for active power-down per rank (pJ)
system.mem_ctrls.dram.rank0.prePowerDownEnergy            0                       # Energy for precharge power-down per rank (pJ)
system.mem_ctrls.dram.rank0.selfRefreshEnergy            0                       # Energy for self refresh per rank (pJ)
system.mem_ctrls.dram.rank0.totalEnergy     108130830                       # Total energy per rank (pJ)
system.mem_ctrls.dram.rank0.averagePower   502.963335                       # Core power per rank (mW)
system.mem_ctrls.dram.rank0.totalIdleTime            0                       # Total Idle time Per DRAM Rank
system.mem_ctrls.dram.rank0.pwrStateTime::IDLE    124612500                       # Time in different power states
system.mem_ctrls.dram.rank0.pwrStateTime::REF      7020000                       # Time in different power states
system.mem_ctrls.dram.rank0.pwrStateTime::SREF            0                       # Time in different power states
system.mem_ctrls.dram.rank0.pwrStateTime::PRE_PDN            0                       # Time in different power states
system.mem_ctrls.dram.rank0.pwrStateTime::ACT     83355000                       # Time in different power states
system.mem_ctrls.dram.rank0.pwrStateTime::ACT_PDN            0                       # Time in different power states
system.mem_ctrls.dram.rank1.actEnergy          678300                       # Energy for activate commands per rank (pJ)
system.mem_ctrls.dram.rank1.preEnergy          345345                       # Energy for precharge commands per rank (pJ)
system.mem_ctrls.dram.rank1.readEnergy        2306220                       # Energy for read commands per rank (pJ)
system.mem_ctrls.dram.rank1.writeEnergy         78300                       # Energy for write commands per rank (pJ)
system.mem_ctrls.dram.rank1.refreshEnergy 16595280.000000                       # Energy for refresh commands per rank (pJ)
system.mem_ctrls.dram.rank1.actBackEnergy     77360400                       # Energy for active background per rank (pJ)
system.mem_ctrls.dram.rank1.preBackEnergy     17409600                       # Energy for precharge background per rank (pJ)
system.mem_ctrls.dram.rank1.actPowerDownEnergy            0                       # Energy for active power-down per rank (pJ)
system.mem_ctrls.dram.rank1.prePowerDownEnergy            0                       # Energy for precharge power-down per rank (pJ)
system.mem_ctrls.dram.rank1.selfRefreshEnergy            0                       # Energy for self refresh per rank (pJ)
system.mem_ctrls.dram.rank1.totalEnergy     114773445                       # Total energy per rank (pJ)
system.mem_ctrls.dram.rank1.averagePower   533.861015                       # Core power per rank (mW)
system.mem_ctrls.dram.rank1.totalIdleTime            0                       # Total Idle time Per DRAM Rank
system.mem_ctrls.dram.rank1.pwrStateTime::IDLE     44512500                       # Time in different power states
system.mem_ctrls.dram.rank1.pwrStateTime::REF      7020000                       # Time in different power states
system.mem_ctrls.dram.rank1.pwrStateTime::SREF            0                       # Time in different power states
system.mem_ctrls.dram.rank1.pwrStateTime::PRE_PDN            0                       # Time in different power states
system.mem_ctrls.dram.rank1.pwrStateTime::ACT    163455000                       # Time in different power states
system.mem_ctrls.dram.rank1.pwrStateTime::ACT_PDN            0                       # Time in different power states
system.mem_ctrls.power_state.pwrStateResidencyTicks::UNDEFINED    214987500                       # Cumulative time (in ticks) in various power states
system.membus.trans_dist::ReadResp                661                       # Transaction distribution
system.membus.trans_dist::WritebackClean          190                       # Transaction distribution
system.membus.trans_dist::CleanEvict                1                       # Transaction distribution
system.membus.trans_dist::ReadExReq                64                       # Transaction distribution
system.membus.trans_dist::ReadExResp               64                       # Transaction distribution
system.membus.trans_dist::ReadCleanReq            507                       # Transaction distribution
system.membus.trans_dist::ReadSharedReq           154                       # Transaction distribution
system.membus.pkt_count_system.cpu.icache.mem_side_port::system.mem_ctrls.port         1204                       # Packet count per connected requestor and responder (bytes)
system.membus.pkt_count_system.cpu.dcache.mem_side_port::system.mem_ctrls.port          437                       # Packet count per connected requestor and responder (bytes)
system.membus.pkt_count::total                   1641                       # Packet count per connected requestor and responder (bytes)
system.membus.pkt_size_system.cpu.icache.mem_side_port::system.mem_ctrls.port        44608                       # Cumulative packet size per connected requestor and responder (bytes)
system.membus.pkt_size_system.cpu.dcache.mem_side_port::system.mem_ctrls.port        13952                       # Cumulative packet size per connected requestor and responder (bytes)
system.membus.pkt_size::total                   58560                       # Cumulative packet size per connected requestor and responder (bytes)
system.membus.snoops                                0                       # Total snoops (count)
system.membus.snoopTraffic                          0                       # Total snoop traffic (bytes)
system.membus.snoop_fanout::samples               725                       # Request fanout histogram
system.membus.snoop_fanout::mean             0.084138                       # Request fanout histogram
system.membus.snoop_fanout::stdev            0.277786                       # Request fanout histogram
system.membus.snoop_fanout::underflows              0      0.00%      0.00% # Request fanout histogram
system.membus.snoop_fanout::0                     664     91.59%     91.59% # Request fanout histogram
system.membus.snoop_fanout::1                      61      8.41%    100.00% # Request fanout histogram
system.membus.snoop_fanout::2                       0      0.00%    100.00% # Request fanout histogram
system.membus.snoop_fanout::overflows               0      0.00%    100.00% # Request fanout histogram
system.membus.snoop_fanout::min_value               0                       # Request fanout histogram
system.membus.snoop_fanout::max_value               1                       # Request fanout histogram
system.membus.snoop_fanout::total                 725                       # Request fanout histogram
system.membus.power_state.pwrStateResidencyTicks::UNDEFINED    214987500                       # Cumulative time (in ticks) in various power states
system.membus.reqLayer0.occupancy             1890000                       # Layer occupancy (ticks)
system.membus.reqLayer0.utilization               0.9                       # Layer utilization (%)
system.membus.respLayer1.occupancy            2656250                       # Layer occupancy (ticks)
system.membus.respLayer1.utilization              1.2                       # Layer utilization (%)
system.membus.respLayer2.occupancy            1158750                       # Layer occupancy (ticks)
system.membus.respLayer2.utilization              0.5                       # Layer utilization (%)
system.voltage_domain.voltage                       1                       # Voltage in Volts

---------- End Simulation Statistics   ----------
