
---------- Begin Simulation Statistics ----------
final_tick                                64975152500                       # Number of ticks from beginning of simulation (restored from checkpoints and never reset)
host_inst_rate                                 147331                       # Simulator instruction rate (inst/s)
host_mem_usage                                 668856                       # Number of bytes of host memory used
host_op_rate                                   161227                       # Simulator op (including micro ops) rate (op/s)
host_seconds                                   678.74                       # Real time elapsed on the host
host_tick_rate                               95728372                       # Simulator tick rate (ticks/s)
sim_freq                                 1000000000000                       # Frequency of simulated ticks
sim_insts                                   100000000                       # Number of instructions simulated
sim_ops                                     109431867                       # Number of ops (including micro ops) simulated
sim_seconds                                  0.064975                       # Number of seconds simulated
sim_ticks                                 64975152500                       # Number of ticks simulated
system.cpu.committedInsts                   100000000                       # Number of instructions committed
system.cpu.committedOps                     109431867                       # Number of ops (including micro ops) committed
system.cpu.cpi                               1.299503                       # CPI: cycles per instruction
system.cpu.discardedOps                        691706                       # Number of ops (including micro ops) which were discarded before commit
system.cpu.idleCycles                        13546104                       # Total number of cycles that the object has spent stopped
system.cpu.ipc                               0.769525                       # IPC: instructions per cycle
system.cpu.numCycles                        129950305                       # number of cpu cycles simulated
system.cpu.numFetchSuspends                         0                       # Number of times Execute suspended instruction fetching
system.cpu.numWorkItemsCompleted                    0                       # number of work items this cpu completed
system.cpu.numWorkItemsStarted                      0                       # number of work items this cpu started
system.cpu.op_class_0::No_OpClass                   0      0.00%      0.00% # Class of committed instruction
system.cpu.op_class_0::IntAlu                72954855     66.67%     66.67% # Class of committed instruction
system.cpu.op_class_0::IntMult                 568365      0.52%     67.19% # Class of committed instruction
system.cpu.op_class_0::IntDiv                       0      0.00%     67.19% # Class of committed instruction
system.cpu.op_class_0::FloatAdd                     0      0.00%     67.19% # Class of committed instruction
system.cpu.op_class_0::FloatCmp                     0      0.00%     67.19% # Class of committed instruction
system.cpu.op_class_0::FloatCvt                     0      0.00%     67.19% # Class of committed instruction
system.cpu.op_class_0::FloatMult                    0      0.00%     67.19% # Class of committed instruction
system.cpu.op_class_0::FloatMultAcc                 0      0.00%     67.19% # Class of committed instruction
system.cpu.op_class_0::FloatDiv                     0      0.00%     67.19% # Class of committed instruction
system.cpu.op_class_0::FloatMisc                    0      0.00%     67.19% # Class of committed instruction
system.cpu.op_class_0::FloatSqrt                    0      0.00%     67.19% # Class of committed instruction
system.cpu.op_class_0::SimdAdd                 241252      0.22%     67.41% # Class of committed instruction
system.cpu.op_class_0::SimdAddAcc                   0      0.00%     67.41% # Class of committed instruction
system.cpu.op_class_0::SimdAlu                 154720      0.14%     67.55% # Class of committed instruction
system.cpu.op_class_0::SimdCmp                 120626      0.11%     67.66% # Class of committed instruction
system.cpu.op_class_0::SimdCvt                      0      0.00%     67.66% # Class of committed instruction
system.cpu.op_class_0::SimdMisc                 44544      0.04%     67.70% # Class of committed instruction
system.cpu.op_class_0::SimdMult                     0      0.00%     67.70% # Class of committed instruction
system.cpu.op_class_0::SimdMultAcc                  0      0.00%     67.70% # Class of committed instruction
system.cpu.op_class_0::SimdShift                    0      0.00%     67.70% # Class of committed instruction
system.cpu.op_class_0::SimdShiftAcc                 0      0.00%     67.70% # Class of committed instruction
system.cpu.op_class_0::SimdDiv                      0      0.00%     67.70% # Class of committed instruction
system.cpu.op_class_0::SimdSqrt                     0      0.00%     67.70% # Class of committed instruction
system.cpu.op_class_0::SimdFloatAdd                 0      0.00%     67.70% # Class of committed instruction
system.cpu.op_class_0::SimdFloatAlu                 0      0.00%     67.70% # Class of committed instruction
system.cpu.op_class_0::SimdFloatCmp                 0      0.00%     67.70% # Class of committed instruction
system.cpu.op_class_0::SimdFloatCvt                 0      0.00%     67.70% # Class of committed instruction
system.cpu.op_class_0::SimdFloatDiv                 0      0.00%     67.70% # Class of committed instruction
system.cpu.op_class_0::SimdFloatMisc           166465      0.15%     67.85% # Class of committed instruction
system.cpu.op_class_0::SimdFloatMult                0      0.00%     67.85% # Class of committed instruction
system.cpu.op_class_0::SimdFloatMultAcc             0      0.00%     67.85% # Class of committed instruction
system.cpu.op_class_0::SimdFloatSqrt                0      0.00%     67.85% # Class of committed instruction
system.cpu.op_class_0::SimdReduceAdd                0      0.00%     67.85% # Class of committed instruction
system.cpu.op_class_0::SimdReduceAlu                0      0.00%     67.85% # Class of committed instruction
system.cpu.op_class_0::SimdReduceCmp                0      0.00%     67.85% # Class of committed instruction
system.cpu.op_class_0::SimdFloatReduceAdd            0      0.00%     67.85% # Class of committed instruction
system.cpu.op_class_0::SimdFloatReduceCmp            0      0.00%     67.85% # Class of committed instruction
system.cpu.op_class_0::SimdAes                      0      0.00%     67.85% # Class of committed instruction
system.cpu.op_class_0::SimdAesMix                   0      0.00%     67.85% # Class of committed instruction
system.cpu.op_class_0::SimdSha1Hash                 0      0.00%     67.85% # Class of committed instruction
system.cpu.op_class_0::SimdSha1Hash2                0      0.00%     67.85% # Class of committed instruction
system.cpu.op_class_0::SimdSha256Hash               0      0.00%     67.85% # Class of committed instruction
system.cpu.op_class_0::SimdSha256Hash2              0      0.00%     67.85% # Class of committed instruction
system.cpu.op_class_0::SimdShaSigma2                0      0.00%     67.85% # Class of committed instruction
system.cpu.op_class_0::SimdShaSigma3                0      0.00%     67.85% # Class of committed instruction
system.cpu.op_class_0::SimdPredAlu                  0      0.00%     67.85% # Class of committed instruction
system.cpu.op_class_0::MemRead               20646356     18.87%     86.72% # Class of committed instruction
system.cpu.op_class_0::MemWrite              14534684     13.28%    100.00% # Class of committed instruction
system.cpu.op_class_0::FloatMemRead                 0      0.00%    100.00% # Class of committed instruction
system.cpu.op_class_0::FloatMemWrite                0      0.00%    100.00% # Class of committed instruction
system.cpu.op_class_0::IprAccess                    0      0.00%    100.00% # Class of committed instruction
system.cpu.op_class_0::InstPrefetch                 0      0.00%    100.00% # Class of committed instruction
system.cpu.op_class_0::total                109431867                       # Class of committed instruction
system.cpu.tickCycles                       116404201                       # Number of cycles that the object actually ticked
system.cpu.workload.numSyscalls                    86                       # Number of system calls
system.membus.snoop_filter.hit_multi_requests            0                       # Number of requests hitting in the snoop filter with multiple (>1) holders of the requested data.
system.membus.snoop_filter.hit_multi_snoops            0                       # Number of snoops hitting in the snoop filter with multiple (>1) holders of the requested data.
system.membus.snoop_filter.hit_single_requests         6704                       # Number of requests hitting in the snoop filter with a single holder of the requested data.
system.membus.snoop_filter.hit_single_snoops            0                       # Number of snoops hitting in the snoop filter with a single holder of the requested data.
system.membus.snoop_filter.tot_requests         46558                       # Total number of requests made to the snoop filter.
system.membus.snoop_filter.tot_snoops               0                       # Total number of snoops made to the snoop filter.
system.tol2bus.snoop_filter.hit_multi_requests          127                       # Number of requests hitting in the snoop filter with multiple (>1) holders of the requested data.
system.tol2bus.snoop_filter.hit_multi_snoops            1                       # Number of snoops hitting in the snoop filter with multiple (>1) holders of the requested data.
system.tol2bus.snoop_filter.hit_single_requests       732532                       # Number of requests hitting in the snoop filter with a single holder of the requested data.
system.tol2bus.snoop_filter.hit_single_snoops          387                       # Number of snoops hitting in the snoop filter with a single holder of the requested data.
system.tol2bus.snoop_filter.tot_requests      1465966                       # Total number of requests made to the snoop filter.
system.tol2bus.snoop_filter.tot_snoops            388                       # Total number of snoops made to the snoop filter.
system.clk_domain.clock                          1000                       # Clock period in ticks
system.cpu.branchPred.lookups                20405559                       # Number of BP lookups
system.cpu.branchPred.condPredicted          16342625                       # Number of conditional branches predicted
system.cpu.branchPred.condIncorrect            142553                       # Number of conditional branches incorrect
system.cpu.branchPred.BTBLookups              8782179                       # Number of BTB lookups
system.cpu.branchPred.BTBHits                 8691539                       # Number of BTB hits
system.cpu.branchPred.BTBHitPct             98.967910                       # BTB Hit Percentage
system.cpu.branchPred.RASUsed                 1050601                       # Number of times the RAS was used to get a target.
system.cpu.branchPred.RASIncorrect                313                       # Number of incorrect RAS predictions.
system.cpu.branchPred.indirectLookups          433994                       # Number of indirect predictor lookups.
system.cpu.branchPred.indirectHits             300039                       # Number of indirect target hits.
system.cpu.branchPred.indirectMisses           133955                       # Number of indirect misses.
system.cpu.branchPred.indirectMispredicted         1038                       # Number of mispredicted indirect branches.
system.cpu.dcache.demand_hits::.cpu.data     35643198                       # number of demand (read+write) hits
system.cpu.dcache.demand_hits::total         35643198                       # number of demand (read+write) hits
system.cpu.dcache.overall_hits::.cpu.data     35646496                       # number of overall hits
system.cpu.dcache.overall_hits::total        35646496                       # number of overall hits
system.cpu.dcache.demand_misses::.cpu.data        88490                       # number of demand (read+write) misses
system.cpu.dcache.demand_misses::total          88490                       # number of demand (read+write) misses
system.cpu.dcache.overall_misses::.cpu.data        88553                       # number of overall misses
system.cpu.dcache.overall_misses::total         88553                       # number of overall misses
system.cpu.dcache.demand_miss_latency::.cpu.data   4690702000                       # number of demand (read+write) miss cycles
system.cpu.dcache.demand_miss_latency::total   4690702000                       # number of demand (read+write) miss cycles
system.cpu.dcache.overall_miss_latency::.cpu.data   4690702000                       # number of overall miss cycles
system.cpu.dcache.overall_miss_latency::total   4690702000                       # number of overall miss cycles
system.cpu.dcache.demand_accesses::.cpu.data     35731688                       # number of demand (read+write) accesses
system.cpu.dcache.demand_accesses::total     35731688                       # number of demand (read+write) accesses
system.cpu.dcache.overall_accesses::.cpu.data     35735049                       # number of overall (read+write) accesses
system.cpu.dcache.overall_accesses::total     35735049                       # number of overall (read+write) accesses
system.cpu.dcache.demand_miss_rate::.cpu.data     0.002477                       # miss rate for demand accesses
system.cpu.dcache.demand_miss_rate::total     0.002477                       # miss rate for demand accesses
system.cpu.dcache.overall_miss_rate::.cpu.data     0.002478                       # miss rate for overall accesses
system.cpu.dcache.overall_miss_rate::total     0.002478                       # miss rate for overall accesses
system.cpu.dcache.demand_avg_miss_latency::.cpu.data 53008.272121                       # average overall miss latency
system.cpu.dcache.demand_avg_miss_latency::total 53008.272121                       # average overall miss latency
system.cpu.dcache.overall_avg_miss_latency::.cpu.data 52970.560004                       # average overall miss latency
system.cpu.dcache.overall_avg_miss_latency::total 52970.560004                       # average overall miss latency
system.cpu.dcache.blocked_cycles::no_mshrs            0                       # number of cycles access was blocked
system.cpu.dcache.blocked_cycles::no_targets            0                       # number of cycles access was blocked
system.cpu.dcache.blocked::no_mshrs                 0                       # number of cycles access was blocked
system.cpu.dcache.blocked::no_targets               0                       # number of cycles access was blocked
system.cpu.dcache.avg_blocked_cycles::no_mshrs          nan                       # average number of cycles each access was blocked
system.cpu.dcache.avg_blocked_cycles::no_targets          nan                       # average number of cycles each access was blocked
system.cpu.dcache.writebacks::.writebacks        56476                       # number of writebacks
system.cpu.dcache.writebacks::total             56476                       # number of writebacks
system.cpu.dcache.demand_mshr_hits::.cpu.data        24014                       # number of demand (read+write) MSHR hits
system.cpu.dcache.demand_mshr_hits::total        24014                       # number of demand (read+write) MSHR hits
system.cpu.dcache.overall_mshr_hits::.cpu.data        24014                       # number of overall MSHR hits
system.cpu.dcache.overall_mshr_hits::total        24014                       # number of overall MSHR hits
system.cpu.dcache.demand_mshr_misses::.cpu.data        64476                       # number of demand (read+write) MSHR misses
system.cpu.dcache.demand_mshr_misses::total        64476                       # number of demand (read+write) MSHR misses
system.cpu.dcache.overall_mshr_misses::.cpu.data        64533                       # number of overall MSHR misses
system.cpu.dcache.overall_mshr_misses::total        64533                       # number of overall MSHR misses
system.cpu.dcache.demand_mshr_miss_latency::.cpu.data   3480033000                       # number of demand (read+write) MSHR miss cycles
system.cpu.dcache.demand_mshr_miss_latency::total   3480033000                       # number of demand (read+write) MSHR miss cycles
system.cpu.dcache.overall_mshr_miss_latency::.cpu.data   3481574000                       # number of overall MSHR miss cycles
system.cpu.dcache.overall_mshr_miss_latency::total   3481574000                       # number of overall MSHR miss cycles
system.cpu.dcache.demand_mshr_miss_rate::.cpu.data     0.001804                       # mshr miss rate for demand accesses
system.cpu.dcache.demand_mshr_miss_rate::total     0.001804                       # mshr miss rate for demand accesses
system.cpu.dcache.overall_mshr_miss_rate::.cpu.data     0.001806                       # mshr miss rate for overall accesses
system.cpu.dcache.overall_mshr_miss_rate::total     0.001806                       # mshr miss rate for overall accesses
system.cpu.dcache.demand_avg_mshr_miss_latency::.cpu.data 53974.083380                       # average overall mshr miss latency
system.cpu.dcache.demand_avg_mshr_miss_latency::total 53974.083380                       # average overall mshr miss latency
system.cpu.dcache.overall_avg_mshr_miss_latency::.cpu.data 53950.288999                       # average overall mshr miss latency
system.cpu.dcache.overall_avg_mshr_miss_latency::total 53950.288999                       # average overall mshr miss latency
system.cpu.dcache.replacements                  64021                       # number of replacements
system.cpu.dcache.ReadReq_hits::.cpu.data     21447066                       # number of ReadReq hits
system.cpu.dcache.ReadReq_hits::total        21447066                       # number of ReadReq hits
system.cpu.dcache.ReadReq_misses::.cpu.data        29995                       # number of ReadReq misses
system.cpu.dcache.ReadReq_misses::total         29995                       # number of ReadReq misses
system.cpu.dcache.ReadReq_miss_latency::.cpu.data    443538000                       # number of ReadReq miss cycles
system.cpu.dcache.ReadReq_miss_latency::total    443538000                       # number of ReadReq miss cycles
system.cpu.dcache.ReadReq_accesses::.cpu.data     21477061                       # number of ReadReq accesses(hits+misses)
system.cpu.dcache.ReadReq_accesses::total     21477061                       # number of ReadReq accesses(hits+misses)
system.cpu.dcache.ReadReq_miss_rate::.cpu.data     0.001397                       # miss rate for ReadReq accesses
system.cpu.dcache.ReadReq_miss_rate::total     0.001397                       # miss rate for ReadReq accesses
system.cpu.dcache.ReadReq_avg_miss_latency::.cpu.data 14787.064511                       # average ReadReq miss latency
system.cpu.dcache.ReadReq_avg_miss_latency::total 14787.064511                       # average ReadReq miss latency
system.cpu.dcache.ReadReq_mshr_hits::.cpu.data         6322                       # number of ReadReq MSHR hits
system.cpu.dcache.ReadReq_mshr_hits::total         6322                       # number of ReadReq MSHR hits
system.cpu.dcache.ReadReq_mshr_misses::.cpu.data        23673                       # number of ReadReq MSHR misses
system.cpu.dcache.ReadReq_mshr_misses::total        23673                       # number of ReadReq MSHR misses
system.cpu.dcache.ReadReq_mshr_miss_latency::.cpu.data    324696000                       # number of ReadReq MSHR miss cycles
system.cpu.dcache.ReadReq_mshr_miss_latency::total    324696000                       # number of ReadReq MSHR miss cycles
system.cpu.dcache.ReadReq_mshr_miss_rate::.cpu.data     0.001102                       # mshr miss rate for ReadReq accesses
system.cpu.dcache.ReadReq_mshr_miss_rate::total     0.001102                       # mshr miss rate for ReadReq accesses
system.cpu.dcache.ReadReq_avg_mshr_miss_latency::.cpu.data 13715.878849                       # average ReadReq mshr miss latency
system.cpu.dcache.ReadReq_avg_mshr_miss_latency::total 13715.878849                       # average ReadReq mshr miss latency
system.cpu.dcache.WriteReq_hits::.cpu.data     14196132                       # number of WriteReq hits
system.cpu.dcache.WriteReq_hits::total       14196132                       # number of WriteReq hits
system.cpu.dcache.WriteReq_misses::.cpu.data        58495                       # number of WriteReq misses
system.cpu.dcache.WriteReq_misses::total        58495                       # number of WriteReq misses
system.cpu.dcache.WriteReq_miss_latency::.cpu.data   4247164000                       # number of WriteReq miss cycles
system.cpu.dcache.WriteReq_miss_latency::total   4247164000                       # number of WriteReq miss cycles
system.cpu.dcache.WriteReq_accesses::.cpu.data     14254627                       # number of WriteReq accesses(hits+misses)
system.cpu.dcache.WriteReq_accesses::total     14254627                       # number of WriteReq accesses(hits+misses)
system.cpu.dcache.WriteReq_miss_rate::.cpu.data     0.004104                       # miss rate for WriteReq accesses
system.cpu.dcache.WriteReq_miss_rate::total     0.004104                       # miss rate for WriteReq accesses
system.cpu.dcache.WriteReq_avg_miss_latency::.cpu.data 72607.299769                       # average WriteReq miss latency
system.cpu.dcache.WriteReq_avg_miss_latency::total 72607.299769                       # average WriteReq miss latency
system.cpu.dcache.WriteReq_mshr_hits::.cpu.data        17692                       # number of WriteReq MSHR hits
system.cpu.dcache.WriteReq_mshr_hits::total        17692                       # number of WriteReq MSHR hits
system.cpu.dcache.WriteReq_mshr_misses::.cpu.data        40803                       # number of WriteReq MSHR misses
system.cpu.dcache.WriteReq_mshr_misses::total        40803                       # number of WriteReq MSHR misses
system.cpu.dcache.WriteReq_mshr_miss_latency::.cpu.data   3155337000                       # number of WriteReq MSHR miss cycles
system.cpu.dcache.WriteReq_mshr_miss_latency::total   3155337000                       # number of WriteReq MSHR miss cycles
system.cpu.dcache.WriteReq_mshr_miss_rate::.cpu.data     0.002862                       # mshr miss rate for WriteReq accesses
system.cpu.dcache.WriteReq_mshr_miss_rate::total     0.002862                       # mshr miss rate for WriteReq accesses
system.cpu.dcache.WriteReq_avg_mshr_miss_latency::.cpu.data 77331.005073                       # average WriteReq mshr miss latency
system.cpu.dcache.WriteReq_avg_mshr_miss_latency::total 77331.005073                       # average WriteReq mshr miss latency
system.cpu.dcache.SoftPFReq_hits::.cpu.data         3298                       # number of SoftPFReq hits
system.cpu.dcache.SoftPFReq_hits::total          3298                       # number of SoftPFReq hits
system.cpu.dcache.SoftPFReq_misses::.cpu.data           63                       # number of SoftPFReq misses
system.cpu.dcache.SoftPFReq_misses::total           63                       # number of SoftPFReq misses
system.cpu.dcache.SoftPFReq_accesses::.cpu.data         3361                       # number of SoftPFReq accesses(hits+misses)
system.cpu.dcache.SoftPFReq_accesses::total         3361                       # number of SoftPFReq accesses(hits+misses)
system.cpu.dcache.SoftPFReq_miss_rate::.cpu.data     0.018744                       # miss rate for SoftPFReq accesses
system.cpu.dcache.SoftPFReq_miss_rate::total     0.018744                       # miss rate for SoftPFReq accesses
system.cpu.dcache.SoftPFReq_mshr_misses::.cpu.data           57                       # number of SoftPFReq MSHR misses
system.cpu.dcache.SoftPFReq_mshr_misses::total           57                       # number of SoftPFReq MSHR misses
system.cpu.dcache.SoftPFReq_mshr_miss_latency::.cpu.data      1541000                       # number of SoftPFReq MSHR miss cycles
system.cpu.dcache.SoftPFReq_mshr_miss_latency::total      1541000                       # number of SoftPFReq MSHR miss cycles
system.cpu.dcache.SoftPFReq_mshr_miss_rate::.cpu.data     0.016959                       # mshr miss rate for SoftPFReq accesses
system.cpu.dcache.SoftPFReq_mshr_miss_rate::total     0.016959                       # mshr miss rate for SoftPFReq accesses
system.cpu.dcache.SoftPFReq_avg_mshr_miss_latency::.cpu.data 27035.087719                       # average SoftPFReq mshr miss latency
system.cpu.dcache.SoftPFReq_avg_mshr_miss_latency::total 27035.087719                       # average SoftPFReq mshr miss latency
system.cpu.dcache.LoadLockedReq_hits::.cpu.data        89082                       # number of LoadLockedReq hits
system.cpu.dcache.LoadLockedReq_hits::total        89082                       # number of LoadLockedReq hits
system.cpu.dcache.LoadLockedReq_accesses::.cpu.data        89082                       # number of LoadLockedReq accesses(hits+misses)
system.cpu.dcache.LoadLockedReq_accesses::total        89082                       # number of LoadLockedReq accesses(hits+misses)
system.cpu.dcache.StoreCondReq_hits::.cpu.data        89082                       # number of StoreCondReq hits
system.cpu.dcache.StoreCondReq_hits::total        89082                       # number of StoreCondReq hits
system.cpu.dcache.StoreCondReq_accesses::.cpu.data        89082                       # number of StoreCondReq accesses(hits+misses)
system.cpu.dcache.StoreCondReq_accesses::total        89082                       # number of StoreCondReq accesses(hits+misses)
system.cpu.dcache.power_state.pwrStateResidencyTicks::UNDEFINED  64975152500                       # Cumulative time (in ticks) in various power states
system.cpu.dcache.tags.tagsinuse           511.143473                       # Cycle average of tags in use
system.cpu.dcache.tags.total_refs            35889193                       # Total number of references to valid blocks.
system.cpu.dcache.tags.sampled_refs             64533                       # Sample count of references to valid blocks.
system.cpu.dcache.tags.avg_refs            556.137062                       # Average number of references to valid blocks.
system.cpu.dcache.tags.warmup_cycle            195500                       # Cycle when the warmup percentage was hit.
system.cpu.dcache.tags.occ_blocks::.cpu.data   511.143473                       # Average occupied blocks per requestor
system.cpu.dcache.tags.occ_percent::.cpu.data     0.998327                       # Average percentage of cache occupancy
system.cpu.dcache.tags.occ_percent::total     0.998327                       # Average percentage of cache occupancy
system.cpu.dcache.tags.occ_task_id_blocks::1024          512                       # Occupied blocks per task id
system.cpu.dcache.tags.age_task_id_blocks_1024::0            6                       # Occupied blocks per task id
system.cpu.dcache.tags.age_task_id_blocks_1024::1           54                       # Occupied blocks per task id
system.cpu.dcache.tags.age_task_id_blocks_1024::2          349                       # Occupied blocks per task id
system.cpu.dcache.tags.age_task_id_blocks_1024::3           78                       # Occupied blocks per task id
system.cpu.dcache.tags.age_task_id_blocks_1024::4           25                       # Occupied blocks per task id
system.cpu.dcache.tags.occ_task_id_percent::1024            1                       # Percentage of cache occupancy per task id
system.cpu.dcache.tags.tag_accesses          71890959                       # Number of tag accesses
system.cpu.dcache.tags.data_accesses         71890959                       # Number of data accesses
system.cpu.dcache.tags.power_state.pwrStateResidencyTicks::UNDEFINED  64975152500                       # Cumulative time (in ticks) in various power states
system.cpu.dtb.instHits                             0                       # ITB inst hits
system.cpu.dtb.instMisses                           0                       # ITB inst misses
system.cpu.dtb.readHits                             0                       # DTB read hits
system.cpu.dtb.readMisses                           0                       # DTB read misses
system.cpu.dtb.writeHits                            0                       # DTB write hits
system.cpu.dtb.writeMisses                          0                       # DTB write misses
system.cpu.dtb.inserts                              0                       # Number of times an entry is inserted into the TLB
system.cpu.dtb.flushTlb                             0                       # Number of times complete TLB was flushed
system.cpu.dtb.flushTlbMva                          0                       # Number of times TLB was flushed by MVA
system.cpu.dtb.flushTlbMvaAsid                      0                       # Number of times TLB was flushed by MVA & ASID
system.cpu.dtb.flushTlbAsid                         0                       # Number of times TLB was flushed by ASID
system.cpu.dtb.flushedEntries                       0                       # Number of entries that have been flushed from TLB
system.cpu.dtb.alignFaults                          0                       # Number of TLB faults due to alignment restrictions
system.cpu.dtb.prefetchFaults                       0                       # Number of TLB faults due to prefetch
system.cpu.dtb.domainFaults                         0                       # Number of TLB faults due to domain restrictions
system.cpu.dtb.permsFaults                          0                       # Number of TLB faults due to permissions restrictions
system.cpu.dtb.readAccesses                         0                       # DTB read accesses
system.cpu.dtb.writeAccesses                        0                       # DTB write accesses
system.cpu.dtb.instAccesses                         0                       # ITB inst accesses
system.cpu.dtb.hits                                 0                       # Total TLB (inst and data) hits
system.cpu.dtb.misses                               0                       # Total TLB (inst and data) misses
system.cpu.dtb.accesses                             0                       # Total TLB (inst and data) accesses
system.cpu.dtb.stage2_mmu.stage2_tlb.instHits            0                       # ITB inst hits
system.cpu.dtb.stage2_mmu.stage2_tlb.instMisses            0                       # ITB inst misses
system.cpu.dtb.stage2_mmu.stage2_tlb.readHits            0                       # DTB read hits
system.cpu.dtb.stage2_mmu.stage2_tlb.readMisses            0                       # DTB read misses
system.cpu.dtb.stage2_mmu.stage2_tlb.writeHits            0                       # DTB write hits
system.cpu.dtb.stage2_mmu.stage2_tlb.writeMisses            0                       # DTB write misses
system.cpu.dtb.stage2_mmu.stage2_tlb.inserts            0                       # Number of times an entry is inserted into the TLB
system.cpu.dtb.stage2_mmu.stage2_tlb.flushTlb            0                       # Number of times complete TLB was flushed
system.cpu.dtb.stage2_mmu.stage2_tlb.flushTlbMva            0                       # Number of times TLB was flushed by MVA
system.cpu.dtb.stage2_mmu.stage2_tlb.flushTlbMvaAsid            0                       # Number of times TLB was flushed by MVA & ASID
system.cpu.dtb.stage2_mmu.stage2_tlb.flushTlbAsid            0                       # Number of times TLB was flushed by ASID
system.cpu.dtb.stage2_mmu.stage2_tlb.flushedEntries            0                       # Number of entries that have been flushed from TLB
system.cpu.dtb.stage2_mmu.stage2_tlb.alignFaults            0                       # Number of TLB faults due to alignment restrictions
system.cpu.dtb.stage2_mmu.stage2_tlb.prefetchFaults            0                       # Number of TLB faults due to prefetch
system.cpu.dtb.stage2_mmu.stage2_tlb.domainFaults            0                       # Number of TLB faults due to domain restrictions
system.cpu.dtb.stage2_mmu.stage2_tlb.permsFaults            0                       # Number of TLB faults due to permissions restrictions
system.cpu.dtb.stage2_mmu.stage2_tlb.readAccesses            0                       # DTB read accesses
system.cpu.dtb.stage2_mmu.stage2_tlb.writeAccesses            0                       # DTB write accesses
system.cpu.dtb.stage2_mmu.stage2_tlb.instAccesses            0                       # ITB inst accesses
system.cpu.dtb.stage2_mmu.stage2_tlb.hits            0                       # Total TLB (inst and data) hits
system.cpu.dtb.stage2_mmu.stage2_tlb.misses            0                       # Total TLB (inst and data) misses
system.cpu.dtb.stage2_mmu.stage2_tlb.accesses            0                       # Total TLB (inst and data) accesses
system.cpu.dtb.stage2_mmu.stage2_tlb.walker.walks            0                       # Table walker walks requested
system.cpu.dtb.stage2_mmu.stage2_tlb.walker.requestOrigin_Requested::Data            0                       # Table walker requests started/completed, data/inst
system.cpu.dtb.stage2_mmu.stage2_tlb.walker.requestOrigin_Requested::Inst            0                       # Table walker requests started/completed, data/inst
system.cpu.dtb.stage2_mmu.stage2_tlb.walker.requestOrigin_Requested::total            0                       # Table walker requests started/completed, data/inst
system.cpu.dtb.stage2_mmu.stage2_tlb.walker.requestOrigin_Completed::Data            0                       # Table walker requests started/completed, data/inst
system.cpu.dtb.stage2_mmu.stage2_tlb.walker.requestOrigin_Completed::Inst            0                       # Table walker requests started/completed, data/inst
system.cpu.dtb.stage2_mmu.stage2_tlb.walker.requestOrigin_Completed::total            0                       # Table walker requests started/completed, data/inst
system.cpu.dtb.stage2_mmu.stage2_tlb.walker.requestOrigin::total            0                       # Table walker requests started/completed, data/inst
system.cpu.dtb.stage2_mmu.stage2_tlb.walker.power_state.pwrStateResidencyTicks::UNDEFINED  64975152500                       # Cumulative time (in ticks) in various power states
system.cpu.dtb.walker.walks                         0                       # Table walker walks requested
system.cpu.dtb.walker.requestOrigin_Requested::Data            0                       # Table walker requests started/completed, data/inst
system.cpu.dtb.walker.requestOrigin_Requested::Inst            0                       # Table walker requests started/completed, data/inst
system.cpu.dtb.walker.requestOrigin_Requested::total            0                       # Table walker requests started/completed, data/inst
system.cpu.dtb.walker.requestOrigin_Completed::Data            0                       # Table walker requests started/completed, data/inst
system.cpu.dtb.walker.requestOrigin_Completed::Inst            0                       # Table walker requests started/completed, data/inst
system.cpu.dtb.walker.requestOrigin_Completed::total            0                       # Table walker requests started/completed, data/inst
system.cpu.dtb.walker.requestOrigin::total            0                       # Table walker requests started/completed, data/inst
system.cpu.dtb.walker.power_state.pwrStateResidencyTicks::UNDEFINED  64975152500                       # Cumulative time (in ticks) in various power states
system.cpu.fetch2.intInstructions            49599160                       # Number of integer instructions successfully decoded
system.cpu.fetch2.fpInstructions                    0                       # Number of floating point instructions successfully decoded
system.cpu.fetch2.vecInstructions                   0                       # Number of SIMD instructions successfully decoded
system.cpu.fetch2.loadInstructions           17151220                       # Number of memory load instructions successfully decoded
system.cpu.fetch2.storeInstructions           9897530                       # Number of memory store instructions successfully decoded
system.cpu.fetch2.amoInstructions                   0                       # Number of memory atomic instructions successfully decoded
system.cpu.icache.demand_hits::.cpu.inst     27661843                       # number of demand (read+write) hits
system.cpu.icache.demand_hits::total         27661843                       # number of demand (read+write) hits
system.cpu.icache.overall_hits::.cpu.inst     27661843                       # number of overall hits
system.cpu.icache.overall_hits::total        27661843                       # number of overall hits
system.cpu.icache.demand_misses::.cpu.inst       668905                       # number of demand (read+write) misses
system.cpu.icache.demand_misses::total         668905                       # number of demand (read+write) misses
system.cpu.icache.overall_misses::.cpu.inst       668905                       # number of overall misses
system.cpu.icache.overall_misses::total        668905                       # number of overall misses
system.cpu.icache.demand_miss_latency::.cpu.inst   8729787500                       # number of demand (read+write) miss cycles
system.cpu.icache.demand_miss_latency::total   8729787500                       # number of demand (read+write) miss cycles
system.cpu.icache.overall_miss_latency::.cpu.inst   8729787500                       # number of overall miss cycles
system.cpu.icache.overall_miss_latency::total   8729787500                       # number of overall miss cycles
system.cpu.icache.demand_accesses::.cpu.inst     28330748                       # number of demand (read+write) accesses
system.cpu.icache.demand_accesses::total     28330748                       # number of demand (read+write) accesses
system.cpu.icache.overall_accesses::.cpu.inst     28330748                       # number of overall (read+write) accesses
system.cpu.icache.overall_accesses::total     28330748                       # number of overall (read+write) accesses
system.cpu.icache.demand_miss_rate::.cpu.inst     0.023611                       # miss rate for demand accesses
system.cpu.icache.demand_miss_rate::total     0.023611                       # miss rate for demand accesses
system.cpu.icache.overall_miss_rate::.cpu.inst     0.023611                       # miss rate for overall accesses
system.cpu.icache.overall_miss_rate::total     0.023611                       # miss rate for overall accesses
system.cpu.icache.demand_avg_miss_latency::.cpu.inst 13050.862978                       # average overall miss latency
system.cpu.icache.demand_avg_miss_latency::total 13050.862978                       # average overall miss latency
system.cpu.icache.overall_avg_miss_latency::.cpu.inst 13050.862978                       # average overall miss latency
system.cpu.icache.overall_avg_miss_latency::total 13050.862978                       # average overall miss latency
system.cpu.icache.blocked_cycles::no_mshrs            0                       # number of cycles access was blocked
system.cpu.icache.blocked_cycles::no_targets            0                       # number of cycles access was blocked
system.cpu.icache.blocked::no_mshrs                 0                       # number of cycles access was blocked
system.cpu.icache.blocked::no_targets               0                       # number of cycles access was blocked
system.cpu.icache.avg_blocked_cycles::no_mshrs          nan                       # average number of cycles each access was blocked
system.cpu.icache.avg_blocked_cycles::no_targets          nan                       # average number of cycles each access was blocked
system.cpu.icache.writebacks::.writebacks       668507                       # number of writebacks
system.cpu.icache.writebacks::total            668507                       # number of writebacks
system.cpu.icache.demand_mshr_misses::.cpu.inst       668905                       # number of demand (read+write) MSHR misses
system.cpu.icache.demand_mshr_misses::total       668905                       # number of demand (read+write) MSHR misses
system.cpu.icache.overall_mshr_misses::.cpu.inst       668905                       # number of overall MSHR misses
system.cpu.icache.overall_mshr_misses::total       668905                       # number of overall MSHR misses
system.cpu.icache.demand_mshr_miss_latency::.cpu.inst   8060882500                       # number of demand (read+write) MSHR miss cycles
system.cpu.icache.demand_mshr_miss_latency::total   8060882500                       # number of demand (read+write) MSHR miss cycles
system.cpu.icache.overall_mshr_miss_latency::.cpu.inst   8060882500                       # number of overall MSHR miss cycles
system.cpu.icache.overall_mshr_miss_latency::total   8060882500                       # number of overall MSHR miss cycles
system.cpu.icache.demand_mshr_miss_rate::.cpu.inst     0.023611                       # mshr miss rate for demand accesses
system.cpu.icache.demand_mshr_miss_rate::total     0.023611                       # mshr miss rate for demand accesses
system.cpu.icache.overall_mshr_miss_rate::.cpu.inst     0.023611                       # mshr miss rate for overall accesses
system.cpu.icache.overall_mshr_miss_rate::total     0.023611                       # mshr miss rate for overall accesses
system.cpu.icache.demand_avg_mshr_miss_latency::.cpu.inst 12050.862978                       # average overall mshr miss latency
system.cpu.icache.demand_avg_mshr_miss_latency::total 12050.862978                       # average overall mshr miss latency
system.cpu.icache.overall_avg_mshr_miss_latency::.cpu.inst 12050.862978                       # average overall mshr miss latency
system.cpu.icache.overall_avg_mshr_miss_latency::total 12050.862978                       # average overall mshr miss latency
system.cpu.icache.replacements                 668507                       # number of replacements
system.cpu.icache.ReadReq_hits::.cpu.inst     27661843                       # number of ReadReq hits
system.cpu.icache.ReadReq_hits::total        27661843                       # number of ReadReq hits
system.cpu.icache.ReadReq_misses::.cpu.inst       668905                       # number of ReadReq misses
system.cpu.icache.ReadReq_misses::total        668905                       # number of ReadReq misses
system.cpu.icache.ReadReq_miss_latency::.cpu.inst   8729787500                       # number of ReadReq miss cycles
system.cpu.icache.ReadReq_miss_latency::total   8729787500                       # number of ReadReq miss cycles
system.cpu.icache.ReadReq_accesses::.cpu.inst     28330748                       # number of ReadReq accesses(hits+misses)
system.cpu.icache.ReadReq_accesses::total     28330748                       # number of ReadReq accesses(hits+misses)
system.cpu.icache.ReadReq_miss_rate::.cpu.inst     0.023611                       # miss rate for ReadReq accesses
system.cpu.icache.ReadReq_miss_rate::total     0.023611                       # miss rate for ReadReq accesses
system.cpu.icache.ReadReq_avg_miss_latency::.cpu.inst 13050.862978                       # average ReadReq miss latency
system.cpu.icache.ReadReq_avg_miss_latency::total 13050.862978                       # average ReadReq miss latency
system.cpu.icache.ReadReq_mshr_misses::.cpu.inst       668905                       # number of ReadReq MSHR misses
system.cpu.icache.ReadReq_mshr_misses::total       668905                       # number of ReadReq MSHR misses
system.cpu.icache.ReadReq_mshr_miss_latency::.cpu.inst   8060882500                       # number of ReadReq MSHR miss cycles
system.cpu.icache.ReadReq_mshr_miss_latency::total   8060882500                       # number of ReadReq MSHR miss cycles
system.cpu.icache.ReadReq_mshr_miss_rate::.cpu.inst     0.023611                       # mshr miss rate for ReadReq accesses
system.cpu.icache.ReadReq_mshr_miss_rate::total     0.023611                       # mshr miss rate for ReadReq accesses
system.cpu.icache.ReadReq_avg_mshr_miss_latency::.cpu.inst 12050.862978                       # average ReadReq mshr miss latency
system.cpu.icache.ReadReq_avg_mshr_miss_latency::total 12050.862978                       # average ReadReq mshr miss latency
system.cpu.icache.power_state.pwrStateResidencyTicks::UNDEFINED  64975152500                       # Cumulative time (in ticks) in various power states
system.cpu.icache.tags.tagsinuse           397.678096                       # Cycle average of tags in use
system.cpu.icache.tags.total_refs            28330748                       # Total number of references to valid blocks.
system.cpu.icache.tags.sampled_refs            668905                       # Sample count of references to valid blocks.
system.cpu.icache.tags.avg_refs             42.353919                       # Average number of references to valid blocks.
system.cpu.icache.tags.warmup_cycle             87500                       # Cycle when the warmup percentage was hit.
system.cpu.icache.tags.occ_blocks::.cpu.inst   397.678096                       # Average occupied blocks per requestor
system.cpu.icache.tags.occ_percent::.cpu.inst     0.776715                       # Average percentage of cache occupancy
system.cpu.icache.tags.occ_percent::total     0.776715                       # Average percentage of cache occupancy
system.cpu.icache.tags.occ_task_id_blocks::1024          398                       # Occupied blocks per task id
system.cpu.icache.tags.age_task_id_blocks_1024::0           10                       # Occupied blocks per task id
system.cpu.icache.tags.age_task_id_blocks_1024::2            4                       # Occupied blocks per task id
system.cpu.icache.tags.age_task_id_blocks_1024::4          384                       # Occupied blocks per task id
system.cpu.icache.tags.occ_task_id_percent::1024     0.777344                       # Percentage of cache occupancy per task id
system.cpu.icache.tags.tag_accesses          57330401                       # Number of tag accesses
system.cpu.icache.tags.data_accesses         57330401                       # Number of data accesses
system.cpu.icache.tags.power_state.pwrStateResidencyTicks::UNDEFINED  64975152500                       # Cumulative time (in ticks) in various power states
system.cpu.itb.instHits                             0                       # ITB inst hits
system.cpu.itb.instMisses                           0                       # ITB inst misses
system.cpu.itb.readHits                             0                       # DTB read hits
system.cpu.itb.readMisses                           0                       # DTB read misses
system.cpu.itb.writeHits                            0                       # DTB write hits
system.cpu.itb.writeMisses                          0                       # DTB write misses
system.cpu.itb.inserts                              0                       # Number of times an entry is inserted into the TLB
system.cpu.itb.flushTlb                             0                       # Number of times complete TLB was flushed
system.cpu.itb.flushTlbMva                          0                       # Number of times TLB was flushed by MVA
system.cpu.itb.flushTlbMvaAsid                      0                       # Number of times TLB was flushed by MVA & ASID
system.cpu.itb.flushTlbAsid                         0                       # Number of times TLB was flushed by ASID
system.cpu.itb.flushedEntries                       0                       # Number of entries that have been flushed from TLB
system.cpu.itb.alignFaults                          0                       # Number of TLB faults due to alignment restrictions
system.cpu.itb.prefetchFaults                       0                       # Number of TLB faults due to prefetch
system.cpu.itb.domainFaults                         0                       # Number of TLB faults due to domain restrictions
system.cpu.itb.permsFaults                          0                       # Number of TLB faults due to permissions restrictions
system.cpu.itb.readAccesses                         0                       # DTB read accesses
system.cpu.itb.writeAccesses                        0                       # DTB write accesses
system.cpu.itb.instAccesses                         0                       # ITB inst accesses
system.cpu.itb.hits                                 0                       # Total TLB (inst and data) hits
system.cpu.itb.misses                               0                       # Total TLB (inst and data) misses
system.cpu.itb.accesses                             0                       # Total TLB (inst and data) accesses
system.cpu.itb.stage2_mmu.stage2_tlb.instHits            0                       # ITB inst hits
system.cpu.itb.stage2_mmu.stage2_tlb.instMisses            0                       # ITB inst misses
system.cpu.itb.stage2_mmu.stage2_tlb.readHits            0                       # DTB read hits
system.cpu.itb.stage2_mmu.stage2_tlb.readMisses            0                       # DTB read misses
system.cpu.itb.stage2_mmu.stage2_tlb.writeHits            0                       # DTB write hits
system.cpu.itb.stage2_mmu.stage2_tlb.writeMisses            0                       # DTB write misses
system.cpu.itb.stage2_mmu.stage2_tlb.inserts            0                       # Number of times an entry is inserted into the TLB
system.cpu.itb.stage2_mmu.stage2_tlb.flushTlb            0                       # Number of times complete TLB was flushed
system.cpu.itb.stage2_mmu.stage2_tlb.flushTlbMva            0                       # Number of times TLB was flushed by MVA
system.cpu.itb.stage2_mmu.stage2_tlb.flushTlbMvaAsid            0                       # Number of times TLB was flushed by MVA & ASID
system.cpu.itb.stage2_mmu.stage2_tlb.flushTlbAsid            0                       # Number of times TLB was flushed by ASID
system.cpu.itb.stage2_mmu.stage2_tlb.flushedEntries            0                       # Number of entries that have been flushed from TLB
system.cpu.itb.stage2_mmu.stage2_tlb.alignFaults            0                       # Number of TLB faults due to alignment restrictions
system.cpu.itb.stage2_mmu.stage2_tlb.prefetchFaults            0                       # Number of TLB faults due to prefetch
system.cpu.itb.stage2_mmu.stage2_tlb.domainFaults            0                       # Number of TLB faults due to domain restrictions
system.cpu.itb.stage2_mmu.stage2_tlb.permsFaults            0                       # Number of TLB faults due to permissions restrictions
system.cpu.itb.stage2_mmu.stage2_tlb.readAccesses            0                       # DTB read accesses
system.cpu.itb.stage2_mmu.stage2_tlb.writeAccesses            0                       # DTB write accesses
system.cpu.itb.stage2_mmu.stage2_tlb.instAccesses            0                       # ITB inst accesses
system.cpu.itb.stage2_mmu.stage2_tlb.hits            0                       # Total TLB (inst and data) hits
system.cpu.itb.stage2_mmu.stage2_tlb.misses            0                       # Total TLB (inst and data) misses
system.cpu.itb.stage2_mmu.stage2_tlb.accesses            0                       # Total TLB (inst and data) accesses
system.cpu.itb.stage2_mmu.stage2_tlb.walker.walks            0                       # Table walker walks requested
system.cpu.itb.stage2_mmu.stage2_tlb.walker.requestOrigin_Requested::Data            0                       # Table walker requests started/completed, data/inst
system.cpu.itb.stage2_mmu.stage2_tlb.walker.requestOrigin_Requested::Inst            0                       # Table walker requests started/completed, data/inst
system.cpu.itb.stage2_mmu.stage2_tlb.walker.requestOrigin_Requested::total            0                       # Table walker requests started/completed, data/inst
system.cpu.itb.stage2_mmu.stage2_tlb.walker.requestOrigin_Completed::Data            0                       # Table walker requests started/completed, data/inst
system.cpu.itb.stage2_mmu.stage2_tlb.walker.requestOrigin_Completed::Inst            0                       # Table walker requests started/completed, data/inst
system.cpu.itb.stage2_mmu.stage2_tlb.walker.requestOrigin_Completed::total            0                       # Table walker requests started/completed, data/inst
system.cpu.itb.stage2_mmu.stage2_tlb.walker.requestOrigin::total            0                       # Table walker requests started/completed, data/inst
system.cpu.itb.stage2_mmu.stage2_tlb.walker.power_state.pwrStateResidencyTicks::UNDEFINED  64975152500                       # Cumulative time (in ticks) in various power states
system.cpu.itb.walker.walks                         0                       # Table walker walks requested
system.cpu.itb.walker.requestOrigin_Requested::Data            0                       # Table walker requests started/completed, data/inst
system.cpu.itb.walker.requestOrigin_Requested::Inst            0                       # Table walker requests started/completed, data/inst
system.cpu.itb.walker.requestOrigin_Requested::total            0                       # Table walker requests started/completed, data/inst
system.cpu.itb.walker.requestOrigin_Completed::Data            0                       # Table walker requests started/completed, data/inst
system.cpu.itb.walker.requestOrigin_Completed::Inst            0                       # Table walker requests started/completed, data/inst
system.cpu.itb.walker.requestOrigin_Completed::total            0                       # Table walker requests started/completed, data/inst
system.cpu.itb.walker.requestOrigin::total            0                       # Table walker requests started/completed, data/inst
system.cpu.itb.walker.power_state.pwrStateResidencyTicks::UNDEFINED  64975152500                       # Cumulative time (in ticks) in various power states
system.cpu.power_state.pwrStateResidencyTicks::ON  64975152500                       # Cumulative time (in ticks) in various power states
system.cpu.thread_0.numInsts                100000000                       # Number of Instructions committed
system.cpu.thread_0.numOps                  109431867                       # Number of Ops committed
system.cpu.thread_0.numMemRefs                      0                       # Number of Memory References
system.cpu_clk_domain.clock                       500                       # Clock period in ticks
system.cpu_voltage_domain.voltage                   1                       # Voltage in Volts
system.l2.demand_hits::.cpu.inst               668393                       # number of demand (read+write) hits
system.l2.demand_hits::.cpu.data                25185                       # number of demand (read+write) hits
system.l2.demand_hits::total                   693578                       # number of demand (read+write) hits
system.l2.overall_hits::.cpu.inst              668393                       # number of overall hits
system.l2.overall_hits::.cpu.data               25185                       # number of overall hits
system.l2.overall_hits::total                  693578                       # number of overall hits
system.l2.demand_misses::.cpu.inst                512                       # number of demand (read+write) misses
system.l2.demand_misses::.cpu.data              39348                       # number of demand (read+write) misses
system.l2.demand_misses::total                  39860                       # number of demand (read+write) misses
system.l2.overall_misses::.cpu.inst               512                       # number of overall misses
system.l2.overall_misses::.cpu.data             39348                       # number of overall misses
system.l2.overall_misses::total                 39860                       # number of overall misses
system.l2.demand_miss_latency::.cpu.inst     39296500                       # number of demand (read+write) miss cycles
system.l2.demand_miss_latency::.cpu.data   3120217000                       # number of demand (read+write) miss cycles
system.l2.demand_miss_latency::total       3159513500                       # number of demand (read+write) miss cycles
system.l2.overall_miss_latency::.cpu.inst     39296500                       # number of overall miss cycles
system.l2.overall_miss_latency::.cpu.data   3120217000                       # number of overall miss cycles
system.l2.overall_miss_latency::total      3159513500                       # number of overall miss cycles
system.l2.demand_accesses::.cpu.inst           668905                       # number of demand (read+write) accesses
system.l2.demand_accesses::.cpu.data            64533                       # number of demand (read+write) accesses
system.l2.demand_accesses::total               733438                       # number of demand (read+write) accesses
system.l2.overall_accesses::.cpu.inst          668905                       # number of overall (read+write) accesses
system.l2.overall_accesses::.cpu.data           64533                       # number of overall (read+write) accesses
system.l2.overall_accesses::total              733438                       # number of overall (read+write) accesses
system.l2.demand_miss_rate::.cpu.inst        0.000765                       # miss rate for demand accesses
system.l2.demand_miss_rate::.cpu.data        0.609735                       # miss rate for demand accesses
system.l2.demand_miss_rate::total            0.054347                       # miss rate for demand accesses
system.l2.overall_miss_rate::.cpu.inst       0.000765                       # miss rate for overall accesses
system.l2.overall_miss_rate::.cpu.data       0.609735                       # miss rate for overall accesses
system.l2.overall_miss_rate::total           0.054347                       # miss rate for overall accesses
system.l2.demand_avg_miss_latency::.cpu.inst 76750.976562                       # average overall miss latency
system.l2.demand_avg_miss_latency::.cpu.data 79297.982108                       # average overall miss latency
system.l2.demand_avg_miss_latency::total 79265.265931                       # average overall miss latency
system.l2.overall_avg_miss_latency::.cpu.inst 76750.976562                       # average overall miss latency
system.l2.overall_avg_miss_latency::.cpu.data 79297.982108                       # average overall miss latency
system.l2.overall_avg_miss_latency::total 79265.265931                       # average overall miss latency
system.l2.blocked_cycles::no_mshrs                  0                       # number of cycles access was blocked
system.l2.blocked_cycles::no_targets                0                       # number of cycles access was blocked
system.l2.blocked::no_mshrs                         0                       # number of cycles access was blocked
system.l2.blocked::no_targets                       0                       # number of cycles access was blocked
system.l2.avg_blocked_cycles::no_mshrs            nan                       # average number of cycles each access was blocked
system.l2.avg_blocked_cycles::no_targets          nan                       # average number of cycles each access was blocked
system.l2.writebacks::.writebacks                6533                       # number of writebacks
system.l2.writebacks::total                      6533                       # number of writebacks
system.l2.demand_mshr_hits::.cpu.inst               1                       # number of demand (read+write) MSHR hits
system.l2.demand_mshr_hits::.cpu.data               5                       # number of demand (read+write) MSHR hits
system.l2.demand_mshr_hits::total                   6                       # number of demand (read+write) MSHR hits
system.l2.overall_mshr_hits::.cpu.inst              1                       # number of overall MSHR hits
system.l2.overall_mshr_hits::.cpu.data              5                       # number of overall MSHR hits
system.l2.overall_mshr_hits::total                  6                       # number of overall MSHR hits
system.l2.demand_mshr_misses::.cpu.inst           511                       # number of demand (read+write) MSHR misses
system.l2.demand_mshr_misses::.cpu.data         39343                       # number of demand (read+write) MSHR misses
system.l2.demand_mshr_misses::total             39854                       # number of demand (read+write) MSHR misses
system.l2.overall_mshr_misses::.cpu.inst          511                       # number of overall MSHR misses
system.l2.overall_mshr_misses::.cpu.data        39343                       # number of overall MSHR misses
system.l2.overall_mshr_misses::total            39854                       # number of overall MSHR misses
system.l2.demand_mshr_miss_latency::.cpu.inst     34122000                       # number of demand (read+write) MSHR miss cycles
system.l2.demand_mshr_miss_latency::.cpu.data   2726446000                       # number of demand (read+write) MSHR miss cycles
system.l2.demand_mshr_miss_latency::total   2760568000                       # number of demand (read+write) MSHR miss cycles
system.l2.overall_mshr_miss_latency::.cpu.inst     34122000                       # number of overall MSHR miss cycles
system.l2.overall_mshr_miss_latency::.cpu.data   2726446000                       # number of overall MSHR miss cycles
system.l2.overall_mshr_miss_latency::total   2760568000                       # number of overall MSHR miss cycles
system.l2.demand_mshr_miss_rate::.cpu.inst     0.000764                       # mshr miss rate for demand accesses
system.l2.demand_mshr_miss_rate::.cpu.data     0.609657                       # mshr miss rate for demand accesses
system.l2.demand_mshr_miss_rate::total       0.054339                       # mshr miss rate for demand accesses
system.l2.overall_mshr_miss_rate::.cpu.inst     0.000764                       # mshr miss rate for overall accesses
system.l2.overall_mshr_miss_rate::.cpu.data     0.609657                       # mshr miss rate for overall accesses
system.l2.overall_mshr_miss_rate::total      0.054339                       # mshr miss rate for overall accesses
system.l2.demand_avg_mshr_miss_latency::.cpu.inst 66774.951076                       # average overall mshr miss latency
system.l2.demand_avg_mshr_miss_latency::.cpu.data 69299.392522                       # average overall mshr miss latency
system.l2.demand_avg_mshr_miss_latency::total 69267.024640                       # average overall mshr miss latency
system.l2.overall_avg_mshr_miss_latency::.cpu.inst 66774.951076                       # average overall mshr miss latency
system.l2.overall_avg_mshr_miss_latency::.cpu.data 69299.392522                       # average overall mshr miss latency
system.l2.overall_avg_mshr_miss_latency::total 69267.024640                       # average overall mshr miss latency
system.l2.replacements                           7089                       # number of replacements
system.l2.WritebackDirty_hits::.writebacks        56476                       # number of WritebackDirty hits
system.l2.WritebackDirty_hits::total            56476                       # number of WritebackDirty hits
system.l2.WritebackDirty_accesses::.writebacks        56476                       # number of WritebackDirty accesses(hits+misses)
system.l2.WritebackDirty_accesses::total        56476                       # number of WritebackDirty accesses(hits+misses)
system.l2.WritebackClean_hits::.writebacks       668422                       # number of WritebackClean hits
system.l2.WritebackClean_hits::total           668422                       # number of WritebackClean hits
system.l2.WritebackClean_accesses::.writebacks       668422                       # number of WritebackClean accesses(hits+misses)
system.l2.WritebackClean_accesses::total       668422                       # number of WritebackClean accesses(hits+misses)
system.l2.CleanEvict_mshr_misses::.writebacks            3                       # number of CleanEvict MSHR misses
system.l2.CleanEvict_mshr_misses::total             3                       # number of CleanEvict MSHR misses
system.l2.CleanEvict_mshr_miss_rate::.writebacks          inf                       # mshr miss rate for CleanEvict accesses
system.l2.CleanEvict_mshr_miss_rate::total          inf                       # mshr miss rate for CleanEvict accesses
system.l2.ReadExReq_hits::.cpu.data              1991                       # number of ReadExReq hits
system.l2.ReadExReq_hits::total                  1991                       # number of ReadExReq hits
system.l2.ReadExReq_misses::.cpu.data           38812                       # number of ReadExReq misses
system.l2.ReadExReq_misses::total               38812                       # number of ReadExReq misses
system.l2.ReadExReq_miss_latency::.cpu.data   3073194000                       # number of ReadExReq miss cycles
system.l2.ReadExReq_miss_latency::total    3073194000                       # number of ReadExReq miss cycles
system.l2.ReadExReq_accesses::.cpu.data         40803                       # number of ReadExReq accesses(hits+misses)
system.l2.ReadExReq_accesses::total             40803                       # number of ReadExReq accesses(hits+misses)
system.l2.ReadExReq_miss_rate::.cpu.data     0.951205                       # miss rate for ReadExReq accesses
system.l2.ReadExReq_miss_rate::total         0.951205                       # miss rate for ReadExReq accesses
system.l2.ReadExReq_avg_miss_latency::.cpu.data 79181.541791                       # average ReadExReq miss latency
system.l2.ReadExReq_avg_miss_latency::total 79181.541791                       # average ReadExReq miss latency
system.l2.ReadExReq_mshr_misses::.cpu.data        38812                       # number of ReadExReq MSHR misses
system.l2.ReadExReq_mshr_misses::total          38812                       # number of ReadExReq MSHR misses
system.l2.ReadExReq_mshr_miss_latency::.cpu.data   2685074000                       # number of ReadExReq MSHR miss cycles
system.l2.ReadExReq_mshr_miss_latency::total   2685074000                       # number of ReadExReq MSHR miss cycles
system.l2.ReadExReq_mshr_miss_rate::.cpu.data     0.951205                       # mshr miss rate for ReadExReq accesses
system.l2.ReadExReq_mshr_miss_rate::total     0.951205                       # mshr miss rate for ReadExReq accesses
system.l2.ReadExReq_avg_mshr_miss_latency::.cpu.data 69181.541791                       # average ReadExReq mshr miss latency
system.l2.ReadExReq_avg_mshr_miss_latency::total 69181.541791                       # average ReadExReq mshr miss latency
system.l2.ReadCleanReq_hits::.cpu.inst         668393                       # number of ReadCleanReq hits
system.l2.ReadCleanReq_hits::total             668393                       # number of ReadCleanReq hits
system.l2.ReadCleanReq_misses::.cpu.inst          512                       # number of ReadCleanReq misses
system.l2.ReadCleanReq_misses::total              512                       # number of ReadCleanReq misses
system.l2.ReadCleanReq_miss_latency::.cpu.inst     39296500                       # number of ReadCleanReq miss cycles
system.l2.ReadCleanReq_miss_latency::total     39296500                       # number of ReadCleanReq miss cycles
system.l2.ReadCleanReq_accesses::.cpu.inst       668905                       # number of ReadCleanReq accesses(hits+misses)
system.l2.ReadCleanReq_accesses::total         668905                       # number of ReadCleanReq accesses(hits+misses)
system.l2.ReadCleanReq_miss_rate::.cpu.inst     0.000765                       # miss rate for ReadCleanReq accesses
system.l2.ReadCleanReq_miss_rate::total      0.000765                       # miss rate for ReadCleanReq accesses
system.l2.ReadCleanReq_avg_miss_latency::.cpu.inst 76750.976562                       # average ReadCleanReq miss latency
system.l2.ReadCleanReq_avg_miss_latency::total 76750.976562                       # average ReadCleanReq miss latency
system.l2.ReadCleanReq_mshr_hits::.cpu.inst            1                       # number of ReadCleanReq MSHR hits
system.l2.ReadCleanReq_mshr_hits::total             1                       # number of ReadCleanReq MSHR hits
system.l2.ReadCleanReq_mshr_misses::.cpu.inst          511                       # number of ReadCleanReq MSHR misses
system.l2.ReadCleanReq_mshr_misses::total          511                       # number of ReadCleanReq MSHR misses
system.l2.ReadCleanReq_mshr_miss_latency::.cpu.inst     34122000                       # number of ReadCleanReq MSHR miss cycles
system.l2.ReadCleanReq_mshr_miss_latency::total     34122000                       # number of ReadCleanReq MSHR miss cycles
system.l2.ReadCleanReq_mshr_miss_rate::.cpu.inst     0.000764                       # mshr miss rate for ReadCleanReq accesses
system.l2.ReadCleanReq_mshr_miss_rate::total     0.000764                       # mshr miss rate for ReadCleanReq accesses
system.l2.ReadCleanReq_avg_mshr_miss_latency::.cpu.inst 66774.951076                       # average ReadCleanReq mshr miss latency
system.l2.ReadCleanReq_avg_mshr_miss_latency::total 66774.951076                       # average ReadCleanReq mshr miss latency
system.l2.ReadSharedReq_hits::.cpu.data         23194                       # number of ReadSharedReq hits
system.l2.ReadSharedReq_hits::total             23194                       # number of ReadSharedReq hits
system.l2.ReadSharedReq_misses::.cpu.data          536                       # number of ReadSharedReq misses
system.l2.ReadSharedReq_misses::total             536                       # number of ReadSharedReq misses
system.l2.ReadSharedReq_miss_latency::.cpu.data     47023000                       # number of ReadSharedReq miss cycles
system.l2.ReadSharedReq_miss_latency::total     47023000                       # number of ReadSharedReq miss cycles
system.l2.ReadSharedReq_accesses::.cpu.data        23730                       # number of ReadSharedReq accesses(hits+misses)
system.l2.ReadSharedReq_accesses::total         23730                       # number of ReadSharedReq accesses(hits+misses)
system.l2.ReadSharedReq_miss_rate::.cpu.data     0.022587                       # miss rate for ReadSharedReq accesses
system.l2.ReadSharedReq_miss_rate::total     0.022587                       # miss rate for ReadSharedReq accesses
system.l2.ReadSharedReq_avg_miss_latency::.cpu.data 87729.477612                       # average ReadSharedReq miss latency
system.l2.ReadSharedReq_avg_miss_latency::total 87729.477612                       # average ReadSharedReq miss latency
system.l2.ReadSharedReq_mshr_hits::.cpu.data            5                       # number of ReadSharedReq MSHR hits
system.l2.ReadSharedReq_mshr_hits::total            5                       # number of ReadSharedReq MSHR hits
system.l2.ReadSharedReq_mshr_misses::.cpu.data          531                       # number of ReadSharedReq MSHR misses
system.l2.ReadSharedReq_mshr_misses::total          531                       # number of ReadSharedReq MSHR misses
system.l2.ReadSharedReq_mshr_miss_latency::.cpu.data     41372000                       # number of ReadSharedReq MSHR miss cycles
system.l2.ReadSharedReq_mshr_miss_latency::total     41372000                       # number of ReadSharedReq MSHR miss cycles
system.l2.ReadSharedReq_mshr_miss_rate::.cpu.data     0.022377                       # mshr miss rate for ReadSharedReq accesses
system.l2.ReadSharedReq_mshr_miss_rate::total     0.022377                       # mshr miss rate for ReadSharedReq accesses
system.l2.ReadSharedReq_avg_mshr_miss_latency::.cpu.data 77913.370998                       # average ReadSharedReq mshr miss latency
system.l2.ReadSharedReq_avg_mshr_miss_latency::total 77913.370998                       # average ReadSharedReq mshr miss latency
system.l2.power_state.pwrStateResidencyTicks::UNDEFINED  64975152500                       # Cumulative time (in ticks) in various power states
system.l2.tags.tagsinuse                 26271.826417                       # Cycle average of tags in use
system.l2.tags.total_refs                     1465830                       # Total number of references to valid blocks.
system.l2.tags.sampled_refs                     39857                       # Sample count of references to valid blocks.
system.l2.tags.avg_refs                     36.777229                       # Average number of references to valid blocks.
system.l2.tags.warmup_cycle                     77000                       # Cycle when the warmup percentage was hit.
system.l2.tags.occ_blocks::.writebacks       0.778106                       # Average occupied blocks per requestor
system.l2.tags.occ_blocks::.cpu.inst       340.368513                       # Average occupied blocks per requestor
system.l2.tags.occ_blocks::.cpu.data     25930.679798                       # Average occupied blocks per requestor
system.l2.tags.occ_percent::.writebacks      0.000024                       # Average percentage of cache occupancy
system.l2.tags.occ_percent::.cpu.inst        0.010387                       # Average percentage of cache occupancy
system.l2.tags.occ_percent::.cpu.data        0.791342                       # Average percentage of cache occupancy
system.l2.tags.occ_percent::total            0.801753                       # Average percentage of cache occupancy
system.l2.tags.occ_task_id_blocks::1024         32768                       # Occupied blocks per task id
system.l2.tags.age_task_id_blocks_1024::0            4                       # Occupied blocks per task id
system.l2.tags.age_task_id_blocks_1024::1           30                       # Occupied blocks per task id
system.l2.tags.age_task_id_blocks_1024::2          365                       # Occupied blocks per task id
system.l2.tags.age_task_id_blocks_1024::3         3291                       # Occupied blocks per task id
system.l2.tags.age_task_id_blocks_1024::4        29078                       # Occupied blocks per task id
system.l2.tags.occ_task_id_percent::1024            1                       # Percentage of cache occupancy per task id
system.l2.tags.tag_accesses                  11766569                       # Number of tag accesses
system.l2.tags.data_accesses                 11766569                       # Number of data accesses
system.l2.tags.power_state.pwrStateResidencyTicks::UNDEFINED  64975152500                       # Cumulative time (in ticks) in various power states
system.mem_ctrls.avgPriority_.writebacks::samples      6533.00                       # Average QoS priority value for accepted requests
system.mem_ctrls.avgPriority_.cpu.inst::samples       511.00                       # Average QoS priority value for accepted requests
system.mem_ctrls.avgPriority_.cpu.data::samples     39341.00                       # Average QoS priority value for accepted requests
system.mem_ctrls.priorityMinLatency      0.000000018750                       # per QoS priority minimum request to response latency (s)
system.mem_ctrls.priorityMaxLatency      0.017521476500                       # per QoS priority maximum request to response latency (s)
system.mem_ctrls.numReadWriteTurnArounds          361                       # Number of turnarounds from READ to WRITE
system.mem_ctrls.numWriteReadTurnArounds          361                       # Number of turnarounds from WRITE to READ
system.mem_ctrls.numStayReadState              102899                       # Number of times bus staying in READ state
system.mem_ctrls.numStayWriteState               6148                       # Number of times bus staying in WRITE state
system.mem_ctrls.readReqs                       39854                       # Number of read requests accepted
system.mem_ctrls.writeReqs                       6533                       # Number of write requests accepted
system.mem_ctrls.readBursts                     39854                       # Number of controller read bursts, including those serviced by the write queue
system.mem_ctrls.writeBursts                     6533                       # Number of controller write bursts, including those merged in the write queue
system.mem_ctrls.servicedByWrQ                      2                       # Number of controller read bursts serviced by the write queue
system.mem_ctrls.mergedWrBursts                     0                       # Number of controller write bursts merged with an existing one
system.mem_ctrls.neitherReadNorWriteReqs            0                       # Number of requests that are neither read nor write
system.mem_ctrls.avgRdQLen                       1.00                       # Average read queue length when enqueuing
system.mem_ctrls.avgWrQLen                       9.64                       # Average write queue length when enqueuing
system.mem_ctrls.numRdRetry                         0                       # Number of times read queue was full causing retry
system.mem_ctrls.numWrRetry                         0                       # Number of times write queue was full causing retry
system.mem_ctrls.readPktSize::0                     0                       # Read request sizes (log2)
system.mem_ctrls.readPktSize::1                     0                       # Read request sizes (log2)
system.mem_ctrls.readPktSize::2                     0                       # Read request sizes (log2)
system.mem_ctrls.readPktSize::3                     0                       # Read request sizes (log2)
system.mem_ctrls.readPktSize::4                     0                       # Read request sizes (log2)
system.mem_ctrls.readPktSize::5                     0                       # Read request sizes (log2)
system.mem_ctrls.readPktSize::6                 39854                       # Read request sizes (log2)
system.mem_ctrls.writePktSize::0                    0                       # Write request sizes (log2)
system.mem_ctrls.writePktSize::1                    0                       # Write request sizes (log2)
system.mem_ctrls.writePktSize::2                    0                       # Write request sizes (log2)
system.mem_ctrls.writePktSize::3                    0                       # Write request sizes (log2)
system.mem_ctrls.writePktSize::4                    0                       # Write request sizes (log2)
system.mem_ctrls.writePktSize::5                    0                       # Write request sizes (log2)
system.mem_ctrls.writePktSize::6                 6533                       # Write request sizes (log2)
system.mem_ctrls.rdQLenPdf::0                   39652                       # What read queue length does an incoming req see
system.mem_ctrls.rdQLenPdf::1                     194                       # What read queue length does an incoming req see
[...]
system.mem_ctrls.dram.bw_write::.writebacks      6434952                       # Write bandwidth from this memory (bytes/s)
system.mem_ctrls.dram.bw_write::total         6434952                       # Write bandwidth from this memory (bytes/s)
system.mem_ctrls.dram.bw_total::.writebacks      6434952                       # Total bandwidth to/from this memory (bytes/s)
system.mem_ctrls.dram.bw_total::.cpu.inst       503331                       # Total bandwidth to/from this memory (bytes/s)
system.mem_ctrls.dram.bw_total::.cpu.data     38752537                       # Total bandwidth to/from this memory (bytes/s)
system.mem_ctrls.dram.bw_total::total        45690820                       # Total bandwidth to/from this memory (bytes/s)
system.mem_ctrls.dram.readBursts                39852                       # Number of DRAM read bursts
system.mem_ctrls.dram.writeBursts                6502                       # Number of DRAM write bursts
system.mem_ctrls.dram.perBankRdBursts::0         2524                       # Per bank write bursts
system.mem_ctrls.dram.perBankRdBursts::1         2488                       # Per bank write bursts
system.mem_ctrls.dram.perBankRdBursts::2         2470                       # Per bank write bursts
system.mem_ctrls.dram.perBankRdBursts::3         2562                       # Per bank write bursts
system.mem_ctrls.dram.perBankRdBursts::4         2482                       # Per bank write bursts
system.mem_ctrls.dram.perBankRdBursts::5         2385                       # Per bank write bursts
system.mem_ctrls.dram.perBankRdBursts::6         2430                       # Per bank write bursts
system.mem_ctrls.dram.perBankRdBursts::7         2489                       # Per bank write bursts
system.mem_ctrls.dram.perBankRdBursts::8         2470                       # Per bank write bursts
system.mem_ctrls.dram.perBankRdBursts::9         2505                       # Per bank write bursts
system.mem_ctrls.dram.perBankRdBursts::10         2495                       # Per bank write bursts
system.mem_ctrls.dram.perBankRdBursts::11         2503                       # Per bank write bursts
system.mem_ctrls.dram.perBankRdBursts::12         2513                       # Per bank write bursts
system.mem_ctrls.dram.perBankRdBursts::13         2473                       # Per bank write bursts
system.mem_ctrls.dram.perBankRdBursts::14         2556                       # Per bank write bursts
system.mem_ctrls.dram.perBankRdBursts::15         2507                       # Per bank write bursts
system.mem_ctrls.dram.perBankWrBursts::0          431                       # Per bank write bursts
system.mem_ctrls.dram.perBankWrBursts::1          411                       # Per bank write bursts
system.mem_ctrls.dram.perBankWrBursts::2          408                       # Per bank write bursts
system.mem_ctrls.dram.perBankWrBursts::3          407                       # Per bank write bursts
system.mem_ctrls.dram.perBankWrBursts::4          413                       # Per bank write bursts
system.mem_ctrls.dram.perBankWrBursts::5          337                       # Per bank write bursts
system.mem_ctrls.dram.perBankWrBursts::6          382                       # Per bank write bursts
system.mem_ctrls.dram.perBankWrBursts::7          418                       # Per bank write bursts
system.mem_ctrls.dram.perBankWrBursts::8          400                       # Per bank write bursts
system.mem_ctrls.dram.perBankWrBursts::9          409                       # Per bank write bursts
system.mem_ctrls.dram.perBankWrBursts::10          414                       # Per bank write bursts
system.mem_ctrls.dram.perBankWrBursts::11          393                       # Per bank write bursts
system.mem_ctrls.dram.perBankWrBursts::12          417                       # Per bank write bursts
system.mem_ctrls.dram.perBankWrBursts::13          404                       # Per bank write bursts
system.mem_ctrls.dram.perBankWrBursts::14          434                       # Per bank write bursts
system.mem_ctrls.dram.perBankWrBursts::15          424                       # Per bank write bursts
system.mem_ctrls.dram.totQLat               377470250                       # Total ticks spent queuing
system.mem_ctrls.dram.totBusLat             199260000                       # Total ticks spent in databus transfers
system.mem_ctrls.dram.totMemAccLat         1124695250                       # Total ticks spent from burst creation until serviced by the DRAM
system.mem_ctrls.dram.avgQLat                 9471.80                       # Average queueing delay per DRAM burst
system.mem_ctrls.dram.avgBusLat               5000.00                       # Average bus latency per DRAM burst
system.mem_ctrls.dram.avgMemAccLat           28221.80                       # Average memory access latency per DRAM burst
system.mem_ctrls.dram.readRowHits               29229                       # Number of row buffer hits during reads
system.mem_ctrls.dram.writeRowHits               5447                       # Number of row buffer hits during writes
system.mem_ctrls.dram.readRowHitRate            73.34                       # Row buffer hit rate for reads
system.mem_ctrls.dram.writeRowHitRate           83.77                       # Row buffer hit rate for writes
system.mem_ctrls.dram.bytesPerActivate::samples        11677                       # Bytes accessed per row activation
system.mem_ctrls.dram.bytesPerActivate::mean   254.043333                       # Bytes accessed per row activation
system.mem_ctrls.dram.bytesPerActivate::gmean   197.189154                       # Bytes accessed per row activation
system.mem_ctrls.dram.bytesPerActivate::stdev   214.888815                       # Bytes accessed per row activation
system.mem_ctrls.dram.bytesPerActivate::0-127         1219     10.44%     10.44% # Bytes accessed per row activation
system.mem_ctrls.dram.bytesPerActivate::128-255         7584     64.95%     75.39% # Bytes accessed per row activation
system.mem_ctrls.dram.bytesPerActivate::256-383          799      6.84%     82.23% # Bytes accessed per row activation
system.mem_ctrls.dram.bytesPerActivate::384-511          335      2.87%     85.10% # Bytes accessed per row activation
system.mem_ctrls.dram.bytesPerActivate::512-639          646      5.53%     90.63% # Bytes accessed per row activation
system.mem_ctrls.dram.bytesPerActivate::640-767          382      3.27%     93.90% # Bytes accessed per row activation
system.mem_ctrls.dram.bytesPerActivate::768-895          276      2.36%     96.27% # Bytes accessed per row activation
system.mem_ctrls.dram.bytesPerActivate::896-1023          251      2.15%     98.42% # Bytes accessed per row activation
system.mem_ctrls.dram.bytesPerActivate::1024-1151          185      1.58%    100.00% # Bytes accessed per row activation
system.mem_ctrls.dram.bytesPerActivate::total        11677                       # Bytes accessed per row activation
system.mem_ctrls.dram.bytesRead               2550528                       # Total number of bytes read from DRAM
system.mem_ctrls.dram.bytesWritten             416128                       # Total number of bytes written to DRAM
system.mem_ctrls.dram.avgRdBW               39.253898                       # Average DRAM read bandwidth in MiBytes/s
system.mem_ctrls.dram.avgWrBW                6.404417                       # Average DRAM write bandwidth in MiBytes/s
system.mem_ctrls.dram.peakBW                 12800.00                       # Theoretical peak bandwidth in MiByte/s
system.mem_ctrls.dram.busUtil                    0.36                       # Data bus utilization in percentage
system.mem_ctrls.dram.busUtilRead                0.31                       # Data bus utilization in percentage for reads
system.mem_ctrls.dram.busUtilWrite               0.05                       # Data bus utilization in percentage for writes
system.mem_ctrls.dram.pageHitRate               74.81                       # Row buffer hit rate, read and write combined
system.mem_ctrls.dram.power_state.pwrStateResidencyTicks::UNDEFINED  64975152500                       # Cumulative time (in ticks) in various power states
system.mem_ctrls.dram.rank0.actEnergy        42033180                       # Energy for activate commands per rank (pJ)
system.mem_ctrls.dram.rank0.preEnergy        22337370                       # Energy for precharge commands per rank (pJ)
system.mem_ctrls.dram.rank0.readEnergy      141586200                       # Energy for read commands per rank (pJ)
system.mem_ctrls.dram.rank0.writeEnergy      16740540                       # Energy for write commands per rank (pJ)
system.mem_ctrls.dram.rank0.refreshEnergy 5128556160.000001                       # Energy for refresh commands per rank (pJ)
system.mem_ctrls.dram.rank0.actBackEnergy  13959366120                       # Energy for active background per rank (pJ)
system.mem_ctrls.dram.rank0.preBackEnergy  13195202880                       # Energy for precharge background per rank (pJ)
system.mem_ctrls.dram.rank0.actPowerDownEnergy            0                       # Energy for active power-down per rank (pJ)
system.mem_ctrls.dram.rank0.prePowerDownEnergy            0                       # Energy for precharge power-down per rank (pJ)
system.mem_ctrls.dram.rank0.selfRefreshEnergy            0                       # Energy for self refresh per rank (pJ)
system.mem_ctrls.dram.rank0.totalEnergy   32505822450                       # Total energy per rank (pJ)
system.mem_ctrls.dram.rank0.averagePower   500.280818                       # Core power per rank (mW)
system.mem_ctrls.dram.rank0.totalIdleTime            0                       # Total Idle time Per DRAM Rank
system.mem_ctrls.dram.rank0.pwrStateTime::IDLE  34180892000                       # Time in different power states
system.mem_ctrls.dram.rank0.pwrStateTime::REF   2169440000                       # Time in different power states
system.mem_ctrls.dram.rank0.pwrStateTime::SREF            0                       # Time in different power states
system.mem_ctrls.dram.rank0.pwrStateTime::PRE_PDN            0                       # Time in different power states
system.mem_ctrls.dram.rank0.pwrStateTime::ACT  28624820500                       # Time in different power states
system.mem_ctrls.dram.rank0.pwrStateTime::ACT_PDN            0                       # Time in different power states
system.mem_ctrls.dram.rank1.actEnergy        41347740                       # Energy for activate commands per rank (pJ)
system.mem_ctrls.dram.rank1.preEnergy        21976845                       # Energy for precharge commands per rank (pJ)
system.mem_ctrls.dram.rank1.readEnergy      142957080                       # Energy for read commands per rank (pJ)
system.mem_ctrls.dram.rank1.writeEnergy      17199900                       # Energy for write commands per rank (pJ)
system.mem_ctrls.dram.rank1.refreshEnergy 5128556160.000001                       # Energy for refresh commands per rank (pJ)
system.mem_ctrls.dram.rank1.actBackEnergy  13784304300                       # Energy for active background per rank (pJ)
system.mem_ctrls.dram.rank1.preBackEnergy  13342623360                       # Energy for precharge background per rank (pJ)
system.mem_ctrls.dram.rank1.actPowerDownEnergy            0                       # Energy for active power-down per rank (pJ)
system.mem_ctrls.dram.rank1.prePowerDownEnergy            0                       # Energy for precharge power-down per rank (pJ)
system.mem_ctrls.dram.rank1.selfRefreshEnergy            0                       # Energy for self refresh per rank (pJ)
system.mem_ctrls.dram.rank1.totalEnergy   32478965385                       # Total energy per rank (pJ)
system.mem_ctrls.dram.rank1.averagePower   499.867474                       # Core power per rank (mW)
system.mem_ctrls.dram.rank1.totalIdleTime            0                       # Total Idle time Per DRAM Rank
system.mem_ctrls.dram.rank1.pwrStateTime::IDLE  34565440500                       # Time in different power states
system.mem_ctrls.dram.rank1.pwrStateTime::REF   2169440000                       # Time in different power states
system.mem_ctrls.dram.rank1.pwrStateTime::SREF            0                       # Time in different power states
system.mem_ctrls.dram.rank1.pwrStateTime::PRE_PDN            0                       # Time in different power states
system.mem_ctrls.dram.rank1.pwrStateTime::ACT  28240272000                       # Time in different power states
system.mem_ctrls.dram.rank1.pwrStateTime::ACT_PDN            0                       # Time in different power states
system.mem_ctrls.power_state.pwrStateResidencyTicks::UNDEFINED  64975152500                       # Cumulative time (in ticks) in various power states
system.membus.trans_dist::ReadResp               1042                       # Transaction distribution
system.membus.trans_dist::WritebackDirty         6533                       # Transaction distribution
system.membus.trans_dist::CleanEvict              171                       # Transaction distribution
system.membus.trans_dist::ReadExReq             38812                       # Transaction distribution
system.membus.trans_dist::ReadExResp            38812                       # Transaction distribution
system.membus.trans_dist::ReadSharedReq          1042                       # Transaction distribution
system.membus.pkt_count_system.l2.mem_side_port::system.mem_ctrls.port        86412                       # Packet count per connected requestor and responder (bytes)
system.membus.pkt_count::total                  86412                       # Packet count per connected requestor and responder (bytes)
system.membus.pkt_size_system.l2.mem_side_port::system.mem_ctrls.port      2968768                       # Cumulative packet size per connected requestor and responder (bytes)
system.membus.pkt_size::total                 2968768                       # Cumulative packet size per connected requestor and responder (bytes)
system.membus.snoops                                0                       # Total snoops (count)
system.membus.snoopTraffic                          0                       # Total snoop traffic (bytes)
system.membus.snoop_fanout::samples             39854                       # Request fanout histogram
system.membus.snoop_fanout::mean                    0                       # Request fanout histogram
system.membus.snoop_fanout::stdev                   0                       # Request fanout histogram
system.membus.snoop_fanout::underflows              0      0.00%      0.00% # Request fanout histogram
system.membus.snoop_fanout::0                   39854    100.00%    100.00% # Request fanout histogram
system.membus.snoop_fanout::1                       0      0.00%    100.00% # Request fanout histogram
system.membus.snoop_fanout::overflows               0      0.00%    100.00% # Request fanout histogram
system.membus.snoop_fanout::min_value               0                       # Request fanout histogram
system.membus.snoop_fanout::max_value               0                       # Request fanout histogram
system.membus.snoop_fanout::total               39854                       # Request fanout histogram
system.membus.power_state.pwrStateResidencyTicks::UNDEFINED  64975152500                       # Cumulative time (in ticks) in various power states
system.membus.reqLayer0.occupancy            81949500                       # Layer occupancy (ticks)
system.membus.reqLayer0.utilization               0.1                       # Layer utilization (%)
system.membus.respLayer1.occupancy          211793250                       # Layer occupancy (ticks)
system.membus.respLayer1.utilization              0.3                       # Layer utilization (%)
system.tol2bus.trans_dist::ReadResp            692635                       # Transaction distribution
system.tol2bus.trans_dist::WritebackDirty        63009                       # Transaction distribution
system.tol2bus.trans_dist::WritebackClean       668507                       # Transaction distribution
system.tol2bus.trans_dist::CleanEvict            8101                       # Transaction distribution
system.tol2bus.trans_dist::ReadExReq            40803                       # Transaction distribution
system.tol2bus.trans_dist::ReadExResp           40803                       # Transaction distribution
system.tol2bus.trans_dist::ReadCleanReq        668905                       # Transaction distribution
system.tol2bus.trans_dist::ReadSharedReq        23730                       # Transaction distribution
system.tol2bus.pkt_count_system.cpu.icache.mem_side_port::system.l2.cpu_side_port      2006317                       # Packet count per connected requestor and responder (bytes)
system.tol2bus.pkt_count_system.cpu.dcache.mem_side_port::system.l2.cpu_side_port       193087                       # Packet count per connected requestor and responder (bytes)
system.tol2bus.pkt_count::total               2199404                       # Packet count per connected requestor and responder (bytes)
system.tol2bus.pkt_size_system.cpu.icache.mem_side_port::system.l2.cpu_side_port     85594368                       # Cumulative packet size per connected requestor and responder (bytes)
system.tol2bus.pkt_size_system.cpu.dcache.mem_side_port::system.l2.cpu_side_port      7744576                       # Cumulative packet size per connected requestor and responder (bytes)
system.tol2bus.pkt_size::total               93338944                       # Cumulative packet size per connected requestor and responder (bytes)
system.tol2bus.snoops                            7089                       # Total snoops (count)
system.tol2bus.snoopTraffic                    418112                       # Total snoop traffic (bytes)
system.tol2bus.snoop_fanout::samples           740527                       # Request fanout histogram
system.tol2bus.snoop_fanout::mean            0.000702                       # Request fanout histogram
system.tol2bus.snoop_fanout::stdev           0.026541                       # Request fanout histogram
system.tol2bus.snoop_fanout::underflows             0      0.00%      0.00% # Request fanout histogram
system.tol2bus.snoop_fanout::0                 740008     99.93%     99.93% # Request fanout histogram
system.tol2bus.snoop_fanout::1                    518      0.07%    100.00% # Request fanout histogram
system.tol2bus.snoop_fanout::2                      1      0.00%    100.00% # Request fanout histogram
system.tol2bus.snoop_fanout::overflows              0      0.00%    100.00% # Request fanout histogram
system.tol2bus.snoop_fanout::min_value              0                       # Request fanout histogram
system.tol2bus.snoop_fanout::max_value              2                       # Request fanout histogram
system.tol2bus.snoop_fanout::total             740527                       # Request fanout histogram
system.tol2bus.power_state.pwrStateResidencyTicks::UNDEFINED  64975152500                       # Cumulative time (in ticks) in various power states
system.tol2bus.reqLayer0.occupancy         1457966000                       # Layer occupancy (ticks)
system.tol2bus.reqLayer0.utilization              2.2                       # Layer utilization (%)
system.tol2bus.respLayer0.occupancy        1003357999                       # Layer occupancy (ticks)
system.tol2bus.respLayer0.utilization             1.5                       # Layer utilization (%)
system.tol2bus.respLayer1.occupancy          96801995                       # Layer occupancy (ticks)
system.tol2bus.respLayer1.utilization             0.1                       # Layer utilization (%)
system.voltage_domain.voltage                       1                       # Voltage in Volts

---------- End Simulation Statistics   ----------
