
---------- Begin Simulation Statistics ----------
final_tick                                68821830000                       # Number of ticks from beginning of simulation (restored from checkpoints and never reset)
host_inst_rate                                 357387                       # Simulator instruction rate (inst/s)
host_mem_usage                                 667392                       # Number of bytes of host memory used
host_op_rate                                   417523                       # Simulator op (including micro ops) rate (op/s)
host_seconds                                   279.81                       # Real time elapsed on the host
host_tick_rate                              245960425                       # Simulator tick rate (ticks/s)
sim_freq                                 1000000000000                       # Frequency of simulated ticks
sim_insts                                   100000000                       # Number of instructions simulated
sim_ops                                     116826593                       # Number of ops (including micro ops) simulated
sim_seconds                                  0.068822                       # Number of seconds simulated
sim_ticks                                 68821830000                       # Number of ticks simulated
system.cpu.committedInsts                   100000000                       # Number of instructions committed
system.cpu.committedOps                     116826593                       # Number of ops (including micro ops) committed
system.cpu.cpi                               1.376437                       # CPI: cycles per instruction
system.cpu.discardedOps                        503622                       # Number of ops (including micro ops) which were discarded before commit
system.cpu.idleCycles                         3167433                       # Total number of cycles that the object has spent stopped
system.cpu.ipc                               0.726514                       # IPC: instructions per cycle
system.cpu.numCycles                        137643660                       # number of cpu cycles simulated
system.cpu.numFetchSuspends                         0                       # Number of times Execute suspended instruction fetching
system.cpu.numWorkItemsCompleted                    0                       # number of work items this cpu completed
system.cpu.numWorkItemsStarted                      0                       # number of work items this cpu started
system.cpu.op_class_0::No_OpClass                   0      0.00%      0.00% # Class of committed instruction
system.cpu.op_class_0::IntAlu                65231396     55.84%     55.84% # Class of committed instruction
system.cpu.op_class_0::IntMult                 602374      0.52%     56.35% # Class of committed instruction
system.cpu.op_class_0::IntDiv                       0      0.00%     56.35% # Class of committed instruction
system.cpu.op_class_0::FloatAdd                     0      0.00%     56.35% # Class of committed instruction
system.cpu.op_class_0::FloatCmp                     0      0.00%     56.35% # Class of committed instruction
system.cpu.op_class_0::FloatCvt                     0      0.00%     56.35% # Class of committed instruction
system.cpu.op_class_0::FloatMult                    0      0.00%     56.35% # Class of committed instruction
system.cpu.op_class_0::FloatMultAcc                 0      0.00%     56.35% # Class of committed instruction
system.cpu.op_class_0::FloatDiv                     0      0.00%     56.35% # Class of committed instruction
system.cpu.op_class_0::FloatMisc                    0      0.00%     56.35% # Class of committed instruction
system.cpu.op_class_0::FloatSqrt                    0      0.00%     56.35% # Class of committed instruction
system.cpu.op_class_0::SimdAdd                    380      0.00%     56.35% # Class of committed instruction
system.cpu.op_class_0::SimdAddAcc                   0      0.00%     56.35% # Class of committed instruction
system.cpu.op_class_0::SimdAlu                    470      0.00%     56.35% # Class of committed instruction
system.cpu.op_class_0::SimdCmp                    382      0.00%     56.35% # Class of committed instruction
system.cpu.op_class_0::SimdCvt                      0      0.00%     56.35% # Class of committed instruction
system.cpu.op_class_0::SimdMisc                    53      0.00%     56.35% # Class of committed instruction
system.cpu.op_class_0::SimdMult                     0      0.00%     56.35% # Class of committed instruction
system.cpu.op_class_0::SimdMultAcc                  0      0.00%     56.35% # Class of committed instruction
system.cpu.op_class_0::SimdShift                    0      0.00%     56.35% # Class of committed instruction
system.cpu.op_class_0::SimdShiftAcc                 0      0.00%     56.35% # Class of committed instruction
system.cpu.op_class_0::SimdDiv                      0      0.00%     56.35% # Class of committed instruction
system.cpu.op_class_0::SimdSqrt                     0      0.00%     56.35% # Class of committed instruction
system.cpu.op_class_0::SimdFloatAdd            783705      0.67%     57.02% # Class of committed instruction
system.cpu.op_class_0::SimdFloatAlu                 0      0.00%     57.02% # Class of committed instruction
system.cpu.op_class_0::SimdFloatCmp            769156      0.66%     57.68% # Class of committed instruction
system.cpu.op_class_0::SimdFloatCvt            311548      0.27%     57.95% # Class of committed instruction
system.cpu.op_class_0::SimdFloatDiv            152211      0.13%     58.08% # Class of committed instruction
system.cpu.op_class_0::SimdFloatMisc           950762      0.81%     58.89% # Class of committed instruction
system.cpu.op_class_0::SimdFloatMult            86008      0.07%     58.97% # Class of committed instruction
system.cpu.op_class_0::SimdFloatMultAcc         12802      0.01%     58.98% # Class of committed instruction
system.cpu.op_class_0::SimdFloatSqrt                0      0.00%     58.98% # Class of committed instruction
system.cpu.op_class_0::SimdReduceAdd                0      0.00%     58.98% # Class of committed instruction
system.cpu.op_class_0::SimdReduceAlu                0      0.00%     58.98% # Class of committed instruction
system.cpu.op_class_0::SimdReduceCmp                0      0.00%     58.98% # Class of committed instruction
system.cpu.op_class_0::SimdFloatReduceAdd            0      0.00%     58.98% # Class of committed instruction
system.cpu.op_class_0::SimdFloatReduceCmp            0      0.00%     58.98% # Class of committed instruction
system.cpu.op_class_0::SimdAes                      0      0.00%     58.98% # Class of committed instruction
system.cpu.op_class_0::SimdAesMix                   0      0.00%     58.98% # Class of committed instruction
system.cpu.op_class_0::SimdSha1Hash                 0      0.00%     58.98% # Class of committed instruction
system.cpu.op_class_0::SimdSha1Hash2                0      0.00%     58.98% # Class of committed instruction
system.cpu.op_class_0::SimdSha256Hash               0      0.00%     58.98% # Class of committed instruction
system.cpu.op_class_0::SimdSha256Hash2              0      0.00%     58.98% # Class of committed instruction
system.cpu.op_class_0::SimdShaSigma2                0      0.00%     58.98% # Class of committed instruction
system.cpu.op_class_0::SimdShaSigma3                0      0.00%     58.98% # Class of committed instruction
system.cpu.op_class_0::SimdPredAlu                  0      0.00%     58.98% # Class of committed instruction
system.cpu.op_class_0::MemRead               30319972     25.95%     84.93% # Class of committed instruction
system.cpu.op_class_0::MemWrite              17605374     15.07%    100.00% # Class of committed instruction
system.cpu.op_class_0::FloatMemRead                 0      0.00%    100.00% # Class of committed instruction
system.cpu.op_class_0::FloatMemWrite                0      0.00%    100.00% # Class of committed instruction
system.cpu.op_class_0::IprAccess                    0      0.00%    100.00% # Class of committed instruction
system.cpu.op_class_0::InstPrefetch                 0      0.00%    100.00% # Class of committed instruction
system.cpu.op_class_0::total                116826593                       # Class of committed instruction
system.cpu.tickCycles                       134476227                       # Number of cycles that the object actually ticked
system.cpu.workload.numSyscalls                    33                       # Number of system calls
system.membus.snoop_filter.hit_multi_requests            0                       # Number of requests hitting in the snoop filter with multiple (>1) holders of the requested data.
system.membus.snoop_filter.hit_multi_snoops            0                       # Number of snoops hitting in the snoop filter with multiple (>1) holders of the requested data.
system.membus.snoop_filter.hit_single_requests            0                       # Number of requests hitting in the snoop filter with a single holder of the requested data.
system.membus.snoop_filter.hit_single_snoops            0                       # Number of snoops hitting in the snoop filter with a single holder of the requested data.
system.membus.snoop_filter.tot_requests          5647                       # Total number of requests made to the snoop filter.
system.membus.snoop_filter.tot_snoops               0                       # Total number of snoops made to the snoop filter.
system.tol2bus.snoop_filter.hit_multi_requests          449                       # Number of requests hitting in the snoop filter with multiple (>1) holders of the requested data.
system.tol2bus.snoop_filter.hit_multi_snoops            0                       # Number of snoops hitting in the snoop filter with multiple (>1) holders of the requested data.
system.tol2bus.snoop_filter.hit_single_requests         4564                       # Number of requests hitting in the snoop filter with a single holder of the requested data.
system.tol2bus.snoop_filter.hit_single_snoops            0                       # Number of snoops hitting in the snoop filter with a single holder of the requested data.
system.tol2bus.snoop_filter.tot_requests        13562                       # Total number of requests made to the snoop filter.
system.tol2bus.snoop_filter.tot_snoops              0                       # Total number of snoops made to the snoop filter.
system.clk_domain.clock                          1000                       # Clock period in ticks
system.cpu.branchPred.lookups                 6104578                       # Number of BP lookups
system.cpu.branchPred.condPredicted           5266147                       # Number of conditional branches predicted
system.cpu.branchPred.condIncorrect            188560                       # Number of conditional branches incorrect
system.cpu.branchPred.BTBLookups              3813320                       # Number of BTB lookups
system.cpu.branchPred.BTBHits                 3808445                       # Number of BTB hits
system.cpu.branchPred.BTBHitPct             99.872159                       # BTB Hit Percentage
system.cpu.branchPred.RASUsed                  257406                       # Number of times the RAS was used to get a target.
system.cpu.branchPred.RASIncorrect                  3                       # Number of incorrect RAS predictions.
system.cpu.branchPred.indirectLookups          154319                       # Number of indirect predictor lookups.
system.cpu.branchPred.indirectHits                236                       # Number of indirect target hits.
system.cpu.branchPred.indirectMisses           154083                       # Number of indirect misses.
system.cpu.branchPred.indirectMispredicted          199                       # Number of mispredicted indirect branches.
system.cpu.dcache.demand_hits::.cpu.data     47771755                       # number of demand (read+write) hits
system.cpu.dcache.demand_hits::total         47771755                       # number of demand (read+write) hits
system.cpu.dcache.overall_hits::.cpu.data     47796881                       # number of overall hits
system.cpu.dcache.overall_hits::total        47796881                       # number of overall hits
system.cpu.dcache.demand_misses::.cpu.data        10597                       # number of demand (read+write) misses
system.cpu.dcache.demand_misses::total          10597                       # number of demand (read+write) misses
system.cpu.dcache.overall_misses::.cpu.data        10691                       # number of overall misses
system.cpu.dcache.overall_misses::total         10691                       # number of overall misses
system.cpu.dcache.demand_miss_latency::.cpu.data    622083000                       # number of demand (read+write) miss cycles
system.cpu.dcache.demand_miss_latency::total    622083000                       # number of demand (read+write) miss cycles
system.cpu.dcache.overall_miss_latency::.cpu.data    622083000                       # number of overall miss cycles
system.cpu.dcache.overall_miss_latency::total    622083000                       # number of overall miss cycles
system.cpu.dcache.demand_accesses::.cpu.data     47782352                       # number of demand (read+write) accesses
system.cpu.dcache.demand_accesses::total     47782352                       # number of demand (read+write) accesses
system.cpu.dcache.overall_accesses::.cpu.data     47807572                       # number of overall (read+write) accesses
system.cpu.dcache.overall_accesses::total     47807572                       # number of overall (read+write) accesses
system.cpu.dcache.demand_miss_rate::.cpu.data     0.000222                       # miss rate for demand accesses
system.cpu.dcache.demand_miss_rate::total     0.000222                       # miss rate for demand accesses
system.cpu.dcache.overall_miss_rate::.cpu.data     0.000224                       # miss rate for overall accesses
system.cpu.dcache.overall_miss_rate::total     0.000224                       # miss rate for overall accesses
system.cpu.dcache.demand_avg_miss_latency::.cpu.data 58703.689724                       # average overall miss latency
system.cpu.dcache.demand_avg_miss_latency::total 58703.689724                       # average overall miss latency
system.cpu.dcache.overall_avg_miss_latency::.cpu.data 58187.540922                       # average overall miss latency
system.cpu.dcache.overall_avg_miss_latency::total 58187.540922                       # average overall miss latency
system.cpu.dcache.blocked_cycles::no_mshrs          135                       # number of cycles access was blocked
system.cpu.dcache.blocked_cycles::no_targets            0                       # number of cycles access was blocked
system.cpu.dcache.blocked::no_mshrs                 2                       # number of cycles access was blocked
system.cpu.dcache.blocked::no_targets               0                       # number of cycles access was blocked
system.cpu.dcache.avg_blocked_cycles::no_mshrs    67.500000                       # average number of cycles each access was blocked
system.cpu.dcache.avg_blocked_cycles::no_targets          nan                       # average number of cycles each access was blocked
system.cpu.dcache.writebacks::.writebacks         1707                       # number of writebacks
system.cpu.dcache.writebacks::total              1707                       # number of writebacks
system.cpu.dcache.demand_mshr_hits::.cpu.data         4293                       # number of demand (read+write) MSHR hits
system.cpu.dcache.demand_mshr_hits::total         4293                       # number of demand (read+write) MSHR hits
system.cpu.dcache.overall_mshr_hits::.cpu.data         4293                       # number of overall MSHR hits
system.cpu.dcache.overall_mshr_hits::total         4293                       # number of overall MSHR hits
system.cpu.dcache.demand_mshr_misses::.cpu.data         6304                       # number of demand (read+write) MSHR misses
system.cpu.dcache.demand_mshr_misses::total         6304                       # number of demand (read+write) MSHR misses
system.cpu.dcache.overall_mshr_misses::.cpu.data         6388                       # number of overall MSHR misses
system.cpu.dcache.overall_mshr_misses::total         6388                       # number of overall MSHR misses
system.cpu.dcache.demand_mshr_miss_latency::.cpu.data    364983500                       # number of demand (read+write) MSHR miss cycles
system.cpu.dcache.demand_mshr_miss_latency::total    364983500                       # number of demand (read+write) MSHR miss cycles
system.cpu.dcache.overall_mshr_miss_latency::.cpu.data    371815000                       # number of overall MSHR miss cycles
system.cpu.dcache.overall_mshr_miss_latency::total    371815000                       # number of overall MSHR miss cycles
system.cpu.dcache.demand_mshr_miss_rate::.cpu.data     0.000132                       # mshr miss rate for demand accesses
system.cpu.dcache.demand_mshr_miss_rate::total     0.000132                       # mshr miss rate for demand accesses
system.cpu.dcache.overall_mshr_miss_rate::.cpu.data     0.000134                       # mshr miss rate for overall accesses
system.cpu.dcache.overall_mshr_miss_rate::total     0.000134                       # mshr miss rate for overall accesses
system.cpu.dcache.demand_avg_mshr_miss_latency::.cpu.data 57897.128807                       # average overall mshr miss latency
system.cpu.dcache.demand_avg_mshr_miss_latency::total 57897.128807                       # average overall mshr miss latency
system.cpu.dcache.overall_avg_mshr_miss_latency::.cpu.data 58205.228554                       # average overall mshr miss latency
system.cpu.dcache.overall_avg_mshr_miss_latency::total 58205.228554                       # average overall mshr miss latency
system.cpu.dcache.replacements                   2391                       # number of replacements
system.cpu.dcache.ReadReq_hits::.cpu.data     30306174                       # number of ReadReq hits
system.cpu.dcache.ReadReq_hits::total        30306174                       # number of ReadReq hits
system.cpu.dcache.ReadReq_misses::.cpu.data         1935                       # number of ReadReq misses
system.cpu.dcache.ReadReq_misses::total          1935                       # number of ReadReq misses
system.cpu.dcache.ReadReq_miss_latency::.cpu.data     81013500                       # number of ReadReq miss cycles
system.cpu.dcache.ReadReq_miss_latency::total     81013500                       # number of ReadReq miss cycles
system.cpu.dcache.ReadReq_accesses::.cpu.data     30308109                       # number of ReadReq accesses(hits+misses)
system.cpu.dcache.ReadReq_accesses::total     30308109                       # number of ReadReq accesses(hits+misses)
system.cpu.dcache.ReadReq_miss_rate::.cpu.data     0.000064                       # miss rate for ReadReq accesses
system.cpu.dcache.ReadReq_miss_rate::total     0.000064                       # miss rate for ReadReq accesses
system.cpu.dcache.ReadReq_avg_miss_latency::.cpu.data 41867.441860                       # average ReadReq miss latency
system.cpu.dcache.ReadReq_avg_miss_latency::total 41867.441860                       # average ReadReq miss latency
system.cpu.dcache.ReadReq_mshr_hits::.cpu.data          195                       # number of ReadReq MSHR hits
system.cpu.dcache.ReadReq_mshr_hits::total          195                       # number of ReadReq MSHR hits
system.cpu.dcache.ReadReq_mshr_misses::.cpu.data         1740                       # number of ReadReq MSHR misses
system.cpu.dcache.ReadReq_mshr_misses::total         1740                       # number of ReadReq MSHR misses
system.cpu.dcache.ReadReq_mshr_miss_latency::.cpu.data     70546500                       # number of ReadReq MSHR miss cycles
system.cpu.dcache.ReadReq_mshr_miss_latency::total     70546500                       # number of ReadReq MSHR miss cycles
system.cpu.dcache.ReadReq_mshr_miss_rate::.cpu.data     0.000057                       # mshr miss rate for ReadReq accesses
system.cpu.dcache.ReadReq_mshr_miss_rate::total     0.000057                       # mshr miss rate for ReadReq accesses
system.cpu.dcache.ReadReq_avg_mshr_miss_latency::.cpu.data 40543.965517                       # average ReadReq mshr miss latency
system.cpu.dcache.ReadReq_avg_mshr_miss_latency::total 40543.965517                       # average ReadReq mshr miss latency
system.cpu.dcache.WriteReq_hits::.cpu.data     17465581                       # number of WriteReq hits
system.cpu.dcache.WriteReq_hits::total       17465581                       # number of WriteReq hits
system.cpu.dcache.WriteReq_misses::.cpu.data         8662                       # number of WriteReq misses
system.cpu.dcache.WriteReq_misses::total         8662                       # number of WriteReq misses
system.cpu.dcache.WriteReq_miss_latency::.cpu.data    541069500                       # number of WriteReq miss cycles
system.cpu.dcache.WriteReq_miss_latency::total    541069500                       # number of WriteReq miss cycles
system.cpu.dcache.WriteReq_accesses::.cpu.data     17474243                       # number of WriteReq accesses(hits+misses)
system.cpu.dcache.WriteReq_accesses::total     17474243                       # number of WriteReq accesses(hits+misses)
system.cpu.dcache.WriteReq_miss_rate::.cpu.data     0.000496                       # miss rate for WriteReq accesses
system.cpu.dcache.WriteReq_miss_rate::total     0.000496                       # miss rate for WriteReq accesses
system.cpu.dcache.WriteReq_avg_miss_latency::.cpu.data 62464.731009                       # average WriteReq miss latency
system.cpu.dcache.WriteReq_avg_miss_latency::total 62464.731009                       # average WriteReq miss latency
system.cpu.dcache.WriteReq_mshr_hits::.cpu.data         4098                       # number of WriteReq MSHR hits
system.cpu.dcache.WriteReq_mshr_hits::total         4098                       # number of WriteReq MSHR hits
system.cpu.dcache.WriteReq_mshr_misses::.cpu.data         4564                       # number of WriteReq MSHR misses
system.cpu.dcache.WriteReq_mshr_misses::total         4564                       # number of WriteReq MSHR misses
system.cpu.dcache.WriteReq_mshr_miss_latency::.cpu.data    294437000                       # number of WriteReq MSHR miss cycles
system.cpu.dcache.WriteReq_mshr_miss_latency::total    294437000                       # number of WriteReq MSHR miss cycles
system.cpu.dcache.WriteReq_mshr_miss_rate::.cpu.data     0.000261                       # mshr miss rate for WriteReq accesses
system.cpu.dcache.WriteReq_mshr_miss_rate::total     0.000261                       # mshr miss rate for WriteReq accesses
system.cpu.dcache.WriteReq_avg_mshr_miss_latency::.cpu.data 64512.927257                       # average WriteReq mshr miss latency
system.cpu.dcache.WriteReq_avg_mshr_miss_latency::total 64512.927257                       # average WriteReq mshr miss latency
system.cpu.dcache.SoftPFReq_hits::.cpu.data        25126                       # number of SoftPFReq hits
system.cpu.dcache.SoftPFReq_hits::total         25126                       # number of SoftPFReq hits
system.cpu.dcache.SoftPFReq_misses::.cpu.data           94                       # number of SoftPFReq misses
system.cpu.dcache.SoftPFReq_misses::total           94                       # number of SoftPFReq misses
system.cpu.dcache.SoftPFReq_accesses::.cpu.data        25220                       # number of SoftPFReq accesses(hits+misses)
system.cpu.dcache.SoftPFReq_accesses::total        25220                       # number of SoftPFReq accesses(hits+misses)
system.cpu.dcache.SoftPFReq_miss_rate::.cpu.data     0.003727                       # miss rate for SoftPFReq accesses
system.cpu.dcache.SoftPFReq_miss_rate::total     0.003727                       # miss rate for SoftPFReq accesses
system.cpu.dcache.SoftPFReq_mshr_misses::.cpu.data           84                       # number of SoftPFReq MSHR misses
system.cpu.dcache.SoftPFReq_mshr_misses::total           84                       # number of SoftPFReq MSHR misses
system.cpu.dcache.SoftPFReq_mshr_miss_latency::.cpu.data      6831500                       # number of SoftPFReq MSHR miss cycles
system.cpu.dcache.SoftPFReq_mshr_miss_latency::total      6831500                       # number of SoftPFReq MSHR miss cycles
system.cpu.dcache.SoftPFReq_mshr_miss_rate::.cpu.data     0.003331                       # mshr miss rate for SoftPFReq accesses
system.cpu.dcache.SoftPFReq_mshr_miss_rate::total     0.003331                       # mshr miss rate for SoftPFReq accesses
system.cpu.dcache.SoftPFReq_avg_mshr_miss_latency::.cpu.data 81327.380952                       # average SoftPFReq mshr miss latency
system.cpu.dcache.SoftPFReq_avg_mshr_miss_latency::total 81327.380952                       # average SoftPFReq mshr miss latency
system.cpu.dcache.LoadLockedReq_hits::.cpu.data          166                       # number of LoadLockedReq hits
system.cpu.dcache.LoadLockedReq_hits::total          166                       # number of LoadLockedReq hits
system.cpu.dcache.LoadLockedReq_accesses::.cpu.data          166                       # number of LoadLockedReq accesses(hits+misses)
system.cpu.dcache.LoadLockedReq_accesses::total          166                       # number of LoadLockedReq accesses(hits+misses)
system.cpu.dcache.StoreCondReq_hits::.cpu.data          166                       # number of StoreCondReq hits
system.cpu.dcache.StoreCondReq_hits::total          166                       # number of StoreCondReq hits
system.cpu.dcache.StoreCondReq_accesses::.cpu.data          166                       # number of StoreCondReq accesses(hits+misses)
system.cpu.dcache.StoreCondReq_accesses::total          166                       # number of StoreCondReq accesses(hits+misses)
system.cpu.dcache.power_state.pwrStateResidencyTicks::UNDEFINED  68821830000                       # Cumulative time (in ticks) in various power states
system.cpu.dcache.tags.tagsinuse          3915.947769                       # Cycle average of tags in use
system.cpu.dcache.tags.total_refs            47803601                       # Total number of references to valid blocks.
system.cpu.dcache.tags.sampled_refs              6388                       # Sample count of references to valid blocks.
system.cpu.dcache.tags.avg_refs           7483.343926                       # Average number of references to valid blocks.
system.cpu.dcache.tags.warmup_cycle            176500                       # Cycle when the warmup percentage was hit.
system.cpu.dcache.tags.occ_blocks::.cpu.data  3915.947769                       # Average occupied blocks per requestor
system.cpu.dcache.tags.occ_percent::.cpu.data     0.956042                       # Average percentage of cache occupancy
system.cpu.dcache.tags.occ_percent::total     0.956042                       # Average percentage of cache occupancy
system.cpu.dcache.tags.occ_task_id_blocks::1024         3997                       # Occupied blocks per task id
system.cpu.dcache.tags.age_task_id_blocks_1024::1            1                       # Occupied blocks per task id
system.cpu.dcache.tags.age_task_id_blocks_1024::2            4                       # Occupied blocks per task id
system.cpu.dcache.tags.age_task_id_blocks_1024::3           32                       # Occupied blocks per task id
system.cpu.dcache.tags.age_task_id_blocks_1024::4         3960                       # Occupied blocks per task id
system.cpu.dcache.tags.occ_task_id_percent::1024     0.975830                       # Percentage of cache occupancy per task id
system.cpu.dcache.tags.tag_accesses          95622196                       # Number of tag accesses
system.cpu.dcache.tags.data_accesses         95622196                       # Number of data accesses
system.cpu.dcache.tags.power_state.pwrStateResidencyTicks::UNDEFINED  68821830000                       # Cumulative time (in ticks) in various power states
system.cpu.dtb.instHits                             0                       # ITB inst hits
system.cpu.dtb.instMisses                           0                       # ITB inst misses
system.cpu.dtb.readHits                             0                       # DTB read hits
system.cpu.dtb.readMisses                           0                       # DTB read misses
system.cpu.dtb.writeHits                            0                       # DTB write hits
system.cpu.dtb.writeMisses                          0                       # DTB write misses
system.cpu.dtb.inserts                              0                       # Number of times an entry is inserted into the TLB
system.cpu.dtb.flushTlb                             0                       # Number of times complete TLB was flushed
system.cpu.dtb.flushTlbMva                          0                       # Number of times TLB was flushed by MVA
system.cpu.dtb.flushTlbMvaAsid                      0                       # Number of times TLB was flushed by MVA & ASID
system.cpu.dtb.flushTlbAsid                         0                       # Number of times TLB was flushed by ASID
system.cpu.dtb.flushedEntries                       0                       # Number of entries that have been flushed from TLB
system.cpu.dtb.alignFaults                          0                       # Number of TLB faults due to alignment restrictions
system.cpu.dtb.prefetchFaults                       0                       # Number of TLB faults due to prefetch
system.cpu.dtb.domainFaults                         0                       # Number of TLB faults due to domain restrictions
system.cpu.dtb.permsFaults                          0                       # Number of TLB faults due to permissions restrictions
system.cpu.dtb.readAccesses                         0                       # DTB read accesses
system.cpu.dtb.writeAccesses                        0                       # DTB write accesses
system.cpu.dtb.instAccesses                         0                       # ITB inst accesses
system.cpu.dtb.hits                                 0                       # Total TLB (inst and data) hits
system.cpu.dtb.misses                               0                       # Total TLB (inst and data) misses
system.cpu.dtb.accesses                             0                       # Total TLB (inst and data) accesses
system.cpu.dtb.stage2_mmu.stage2_tlb.instHits            0                       # ITB inst hits
system.cpu.dtb.stage2_mmu.stage2_tlb.instMisses            0                       # ITB inst misses
system.cpu.dtb.stage2_mmu.stage2_tlb.readHits            0                       # DTB read hits
system.cpu.dtb.stage2_mmu.stage2_tlb.readMisses            0                       # DTB read misses
system.cpu.dtb.stage2_mmu.stage2_tlb.writeHits            0                       # DTB write hits
system.cpu.dtb.stage2_mmu.stage2_tlb.writeMisses            0                       # DTB write misses
system.cpu.dtb.stage2_mmu.stage2_tlb.inserts            0                       # Number of times an entry is inserted into the TLB
system.cpu.dtb.stage2_mmu.stage2_tlb.flushTlb            0                       # Number of times complete TLB was flushed
system.cpu.dtb.stage2_mmu.stage2_tlb.flushTlbMva            0                       # Number of times TLB was flushed by MVA
system.cpu.dtb.stage2_mmu.stage2_tlb.flushTlbMvaAsid            0                       # Number of times TLB was flushed by MVA & ASID
system.cpu.dtb.stage2_mmu.stage2_tlb.flushTlbAsid            0                       # Number of times TLB was flushed by ASID
system.cpu.dtb.stage2_mmu.stage2_tlb.flushedEntries            0                       # Number of entries that have been flushed from TLB
system.cpu.dtb.stage2_mmu.stage2_tlb.alignFaults            0                       # Number of TLB faults due to alignment restrictions
system.cpu.dtb.stage2_mmu.stage2_tlb.prefetchFaults            0                       # Number of TLB faults due to prefetch
system.cpu.dtb.stage2_mmu.stage2_tlb.domainFaults            0                       # Number of TLB faults due to domain restrictions
system.cpu.dtb.stage2_mmu.stage2_tlb.permsFaults            0                       # Number of TLB faults due to permissions restrictions
system.cpu.dtb.stage2_mmu.stage2_tlb.readAccesses            0                       # DTB read accesses
system.cpu.dtb.stage2_mmu.stage2_tlb.writeAccesses            0                       # DTB write accesses
system.cpu.dtb.stage2_mmu.stage2_tlb.instAccesses            0                       # ITB inst accesses
system.cpu.dtb.stage2_mmu.stage2_tlb.hits            0                       # Total TLB (inst and data) hits
system.cpu.dtb.stage2_mmu.stage2_tlb.misses            0                       # Total TLB (inst and data) misses
system.cpu.dtb.stage2_mmu.stage2_tlb.accesses            0                       # Total TLB (inst and data) accesses
system.cpu.dtb.stage2_mmu.stage2_tlb.walker.walks            0                       # Table walker walks requested
system.cpu.dtb.stage2_mmu.stage2_tlb.walker.requestOrigin_Requested::Data            0                       # Table walker requests started/completed, data/inst
system.cpu.dtb.stage2_mmu.stage2_tlb.walker.requestOrigin_Requested::Inst            0                       # Table walker requests started/completed, data/inst
system.cpu.dtb.stage2_mmu.stage2_tlb.walker.requestOrigin_Requested::total            0                       # Table walker requests started/completed, data/inst
system.cpu.dtb.stage2_mmu.stage2_tlb.walker.requestOrigin_Completed::Data            0                       # Table walker requests started/completed, data/inst
system.cpu.dtb.stage2_mmu.stage2_tlb.walker.requestOrigin_Completed::Inst            0                       # Table walker requests started/completed, data/inst
system.cpu.dtb.stage2_mmu.stage2_tlb.walker.requestOrigin_Completed::total            0                       # Table walker requests started/completed, data/inst
system.cpu.dtb.stage2_mmu.stage2_tlb.walker.requestOrigin::total            0                       # Table walker requests started/completed, data/inst
system.cpu.dtb.stage2_mmu.stage2_tlb.walker.power_state.pwrStateResidencyTicks::UNDEFINED  68821830000                       # Cumulative time (in ticks) in various power states
system.cpu.dtb.walker.walks                         0                       # Table walker walks requested
system.cpu.dtb.walker.requestOrigin_Requested::Data            0                       # Table walker requests started/completed, data/inst
system.cpu.dtb.walker.requestOrigin_Requested::Inst            0                       # Table walker requests started/completed, data/inst
system.cpu.dtb.walker.requestOrigin_Requested::total            0                       # Table walker requests started/completed, data/inst
system.cpu.dtb.walker.requestOrigin_Completed::Data            0                       # Table walker requests started/completed, data/inst
system.cpu.dtb.walker.requestOrigin_Completed::Inst            0                       # Table walker requests started/completed, data/inst
system.cpu.dtb.walker.requestOrigin_Completed::total            0                       # Table walker requests started/completed, data/inst
system.cpu.dtb.walker.requestOrigin::total            0                       # Table walker requests started/completed, data/inst
system.cpu.dtb.walker.power_state.pwrStateResidencyTicks::UNDEFINED  68821830000                       # Cumulative time (in ticks) in various power states
system.cpu.fetch2.intInstructions            37762472                       # Number of integer instructions successfully decoded
system.cpu.fetch2.fpInstructions                    0                       # Number of floating point instructions successfully decoded
system.cpu.fetch2.vecInstructions                   0                       # Number of SIMD instructions successfully decoded
system.cpu.fetch2.loadInstructions           17245252                       # Number of memory load instructions successfully decoded
system.cpu.fetch2.storeInstructions          14150471                       # Number of memory store instructions successfully decoded
system.cpu.fetch2.amoInstructions                   0                       # Number of memory atomic instructions successfully decoded
system.cpu.icache.demand_hits::.cpu.inst     15471037                       # number of demand (read+write) hits
system.cpu.icache.demand_hits::total         15471037                       # number of demand (read+write) hits
system.cpu.icache.overall_hits::.cpu.inst     15471037                       # number of overall hits
system.cpu.icache.overall_hits::total        15471037                       # number of overall hits
system.cpu.icache.demand_misses::.cpu.inst         2628                       # number of demand (read+write) misses
system.cpu.icache.demand_misses::total           2628                       # number of demand (read+write) misses
system.cpu.icache.overall_misses::.cpu.inst         2628                       # number of overall misses
system.cpu.icache.overall_misses::total          2628                       # number of overall misses
system.cpu.icache.demand_miss_latency::.cpu.inst    110203000                       # number of demand (read+write) miss cycles
system.cpu.icache.demand_miss_latency::total    110203000                       # number of demand (read+write) miss cycles
system.cpu.icache.overall_miss_latency::.cpu.inst    110203000                       # number of overall miss cycles
system.cpu.icache.overall_miss_latency::total    110203000                       # number of overall miss cycles
system.cpu.icache.demand_accesses::.cpu.inst     15473665                       # number of demand (read+write) accesses
system.cpu.icache.demand_accesses::total     15473665                       # number of demand (read+write) accesses
system.cpu.icache.overall_accesses::.cpu.inst     15473665                       # number of overall (read+write) accesses
system.cpu.icache.overall_accesses::total     15473665                       # number of overall (read+write) accesses
system.cpu.icache.demand_miss_rate::.cpu.inst     0.000170                       # miss rate for demand accesses
system.cpu.icache.demand_miss_rate::total     0.000170                       # miss rate for demand accesses
system.cpu.icache.overall_miss_rate::.cpu.inst     0.000170                       # miss rate for overall accesses
system.cpu.icache.overall_miss_rate::total     0.000170                       # miss rate for overall accesses
system.cpu.icache.demand_avg_miss_latency::.cpu.inst 41934.170472                       # average overall miss latency
system.cpu.icache.demand_avg_miss_latency::total 41934.170472                       # average overall miss latency
system.cpu.icache.overall_avg_miss_latency::.cpu.inst 41934.170472                       # average overall miss latency
system.cpu.icache.overall_avg_miss_latency::total 41934.170472                       # average overall miss latency
system.cpu.icache.blocked_cycles::no_mshrs            0                       # number of cycles access was blocked
system.cpu.icache.blocked_cycles::no_targets            0                       # number of cycles access was blocked
system.cpu.icache.blocked::no_mshrs                 0                       # number of cycles access was blocked
system.cpu.icache.blocked::no_targets               0                       # number of cycles access was blocked
system.cpu.icache.avg_blocked_cycles::no_mshrs          nan                       # average number of cycles each access was blocked
system.cpu.icache.avg_blocked_cycles::no_targets          nan                       # average number of cycles each access was blocked
system.cpu.icache.writebacks::.writebacks         2155                       # number of writebacks
system.cpu.icache.writebacks::total              2155                       # number of writebacks
system.cpu.icache.demand_mshr_misses::.cpu.inst         2628                       # number of demand (read+write) MSHR misses
system.cpu.icache.demand_mshr_misses::total         2628                       # number of demand (read+write) MSHR misses
system.cpu.icache.overall_mshr_misses::.cpu.inst         2628                       # number of overall MSHR misses
system.cpu.icache.overall_mshr_misses::total         2628                       # number of overall MSHR misses
system.cpu.icache.demand_mshr_miss_latency::.cpu.inst    107575000                       # number of demand (read+write) MSHR miss cycles
system.cpu.icache.demand_mshr_miss_latency::total    107575000                       # number of demand (read+write) MSHR miss cycles
system.cpu.icache.overall_mshr_miss_latency::.cpu.inst    107575000                       # number of overall MSHR miss cycles
system.cpu.icache.overall_mshr_miss_latency::total    107575000                       # number of overall MSHR miss cycles
system.cpu.icache.demand_mshr_miss_rate::.cpu.inst     0.000170                       # mshr miss rate for demand accesses
system.cpu.icache.demand_mshr_miss_rate::total     0.000170                       # mshr miss rate for demand accesses
system.cpu.icache.overall_mshr_miss_rate::.cpu.inst     0.000170                       # mshr miss rate for overall accesses
system.cpu.icache.overall_mshr_miss_rate::total     0.000170                       # mshr miss rate for overall accesses
system.cpu.icache.demand_avg_mshr_miss_latency::.cpu.inst 40934.170472                       # average overall mshr miss latency
system.cpu.icache.demand_avg_mshr_miss_latency::total 40934.170472                       # average overall mshr miss latency
system.cpu.icache.overall_avg_mshr_miss_latency::.cpu.inst 40934.170472                       # average overall mshr miss latency
system.cpu.icache.overall_avg_mshr_miss_latency::total 40934.170472                       # average overall mshr miss latency
system.cpu.icache.replacements                   2155                       # number of replacements
system.cpu.icache.ReadReq_hits::.cpu.inst     15471037                       # number of ReadReq hits
system.cpu.icache.ReadReq_hits::total        15471037                       # number of ReadReq hits
system.cpu.icache.ReadReq_misses::.cpu.inst         2628                       # number of ReadReq misses
system.cpu.icache.ReadReq_misses::total          2628                       # number of ReadReq misses
system.cpu.icache.ReadReq_miss_latency::.cpu.inst    110203000                       # number of ReadReq miss cycles
system.cpu.icache.ReadReq_miss_latency::total    110203000                       # number of ReadReq miss cycles
system.cpu.icache.ReadReq_accesses::.cpu.inst     15473665                       # number of ReadReq accesses(hits+misses)
system.cpu.icache.ReadReq_accesses::total     15473665                       # number of ReadReq accesses(hits+misses)
system.cpu.icache.ReadReq_miss_rate::.cpu.inst     0.000170                       # miss rate for ReadReq accesses
system.cpu.icache.ReadReq_miss_rate::total     0.000170                       # miss rate for ReadReq accesses
system.cpu.icache.ReadReq_avg_miss_latency::.cpu.inst 41934.170472                       # average ReadReq miss latency
system.cpu.icache.ReadReq_avg_miss_latency::total 41934.170472                       # average ReadReq miss latency
system.cpu.icache.ReadReq_mshr_misses::.cpu.inst         2628                       # number of ReadReq MSHR misses
system.cpu.icache.ReadReq_mshr_misses::total         2628                       # number of ReadReq MSHR misses
system.cpu.icache.ReadReq_mshr_miss_latency::.cpu.inst    107575000                       # number of ReadReq MSHR miss cycles
system.cpu.icache.ReadReq_mshr_miss_latency::total    107575000                       # number of ReadReq MSHR miss cycles
system.cpu.icache.ReadReq_mshr_miss_rate::.cpu.inst     0.000170                       # mshr miss rate for ReadReq accesses
system.cpu.icache.ReadReq_mshr_miss_rate::total     0.000170                       # mshr miss rate for ReadReq accesses
system.cpu.icache.ReadReq_avg_mshr_miss_latency::.cpu.inst 40934.170472                       # average ReadReq mshr miss latency
system.cpu.icache.ReadReq_avg_mshr_miss_latency::total 40934.170472                       # average ReadReq mshr miss latency
system.cpu.icache.power_state.pwrStateResidencyTicks::UNDEFINED  68821830000                       # Cumulative time (in ticks) in various power states
system.cpu.icache.tags.tagsinuse           472.684539                       # Cycle average of tags in use
system.cpu.icache.tags.total_refs            15473665                       # Total number of references to valid blocks.
system.cpu.icache.tags.sampled_refs              2628                       # Sample count of references to valid blocks.
system.cpu.icache.tags.avg_refs           5888.000381                       # Average number of references to valid blocks.
system.cpu.icache.tags.warmup_cycle             87500                       # Cycle when the warmup percentage was hit.
system.cpu.icache.tags.occ_blocks::.cpu.inst   472.684539                       # Average occupied blocks per requestor
system.cpu.icache.tags.occ_percent::.cpu.inst     0.923212                       # Average percentage of cache occupancy
system.cpu.icache.tags.occ_percent::total     0.923212                       # Average percentage of cache occupancy
system.cpu.icache.tags.occ_task_id_blocks::1024          473                       # Occupied blocks per task id
system.cpu.icache.tags.age_task_id_blocks_1024::3           12                       # Occupied blocks per task id
system.cpu.icache.tags.age_task_id_blocks_1024::4          461                       # Occupied blocks per task id
system.cpu.icache.tags.occ_task_id_percent::1024     0.923828                       # Percentage of cache occupancy per task id
system.cpu.icache.tags.tag_accesses          30949958                       # Number of tag accesses
system.cpu.icache.tags.data_accesses         30949958                       # Number of data accesses
system.cpu.icache.tags.power_state.pwrStateResidencyTicks::UNDEFINED  68821830000                       # Cumulative time (in ticks) in various power states
system.cpu.itb.instHits                             0                       # ITB inst hits
system.cpu.itb.instMisses                           0                       # ITB inst misses
system.cpu.itb.readHits                             0                       # DTB read hits
system.cpu.itb.readMisses                           0                       # DTB read misses
system.cpu.itb.writeHits                            0                       # DTB write hits
system.cpu.itb.writeMisses                          0                       # DTB write misses
system.cpu.itb.inserts                              0                       # Number of times an entry is inserted into the TLB
system.cpu.itb.flushTlb                             0                       # Number of times complete TLB was flushed
system.cpu.itb.flushTlbMva                          0                       # Number of times TLB was flushed by MVA
system.cpu.itb.flushTlbMvaAsid                      0                       # Number of times TLB was flushed by MVA & ASID
system.cpu.itb.flushTlbAsid                         0                       # Number of times TLB was flushed by ASID
system.cpu.itb.flushedEntries                       0                       # Number of entries that have been flushed from TLB
system.cpu.itb.alignFaults                          0                       # Number of TLB faults due to alignment restrictions
system.cpu.itb.prefetchFaults                       0                       # Number of TLB faults due to prefetch
system.cpu.itb.domainFaults                         0                       # Number of TLB faults due to domain restrictions
system.cpu.itb.permsFaults                          0                       # Number of TLB faults due to permissions restrictions
system.cpu.itb.readAccesses                         0                       # DTB read accesses
system.cpu.itb.writeAccesses                        0                       # DTB write accesses
system.cpu.itb.instAccesses                         0                       # ITB inst accesses
system.cpu.itb.hits                                 0                       # Total TLB (inst and data) hits
system.cpu.itb.misses                               0                       # Total TLB (inst and data) misses
system.cpu.itb.accesses                             0                       # Total TLB (inst and data) accesses
system.cpu.itb.stage2_mmu.stage2_tlb.instHits            0                       # ITB inst hits
system.cpu.itb.stage2_mmu.stage2_tlb.instMisses            0                       # ITB inst misses
system.cpu.itb.stage2_mmu.stage2_tlb.readHits            0                       # DTB read hits
system.cpu.itb.stage2_mmu.stage2_tlb.readMisses            0                       # DTB read misses
system.cpu.itb.stage2_mmu.stage2_tlb.writeHits            0                       # DTB write hits
system.cpu.itb.stage2_mmu.stage2_tlb.writeMisses            0                       # DTB write misses
system.cpu.itb.stage2_mmu.stage2_tlb.inserts            0                       # Number of times an entry is inserted into the TLB
system.cpu.itb.stage2_mmu.stage2_tlb.flushTlb            0                       # Number of times complete TLB was flushed
system.cpu.itb.stage2_mmu.stage2_tlb.flushTlbMva            0                       # Number of times TLB was flushed by MVA
system.cpu.itb.stage2_mmu.stage2_tlb.flushTlbMvaAsid            0                       # Number of times TLB was flushed by MVA & ASID
system.cpu.itb.stage2_mmu.stage2_tlb.flushTlbAsid            0                       # Number of times TLB was flushed by ASID
system.cpu.itb.stage2_mmu.stage2_tlb.flushedEntries            0                       # Number of entries that have been flushed from TLB
system.cpu.itb.stage2_mmu.stage2_tlb.alignFaults            0                       # Number of TLB faults due to alignment restrictions
system.cpu.itb.stage2_mmu.stage2_tlb.prefetchFaults            0                       # Number of TLB faults due to prefetch
system.cpu.itb.stage2_mmu.stage2_tlb.domainFaults            0                       # Number of TLB faults due to domain restrictions
system.cpu.itb.stage2_mmu.stage2_tlb.permsFaults            0                       # Number of TLB faults due to permissions restrictions
system.cpu.itb.stage2_mmu.stage2_tlb.readAccesses            0                       # DTB read accesses
system.cpu.itb.stage2_mmu.stage2_tlb.writeAccesses            0                       # DTB write accesses
system.cpu.itb.stage2_mmu.stage2_tlb.instAccesses            0                       # ITB inst accesses
system.cpu.itb.stage2_mmu.stage2_tlb.hits            0                       # Total TLB (inst and data) hits
system.cpu.itb.stage2_mmu.stage2_tlb.misses            0                       # Total TLB (inst and data) misses
system.cpu.itb.stage2_mmu.stage2_tlb.accesses            0                       # Total TLB (inst and data) accesses
system.cpu.itb.stage2_mmu.stage2_tlb.walker.walks            0                       # Table walker walks requested
system.cpu.itb.stage2_mmu.stage2_tlb.walker.requestOrigin_Requested::Data            0                       # Table walker requests started/completed, data/inst
system.cpu.itb.stage2_mmu.stage2_tlb.walker.requestOrigin_Requested::Inst            0                       # Table walker requests started/completed, data/inst
system.cpu.itb.stage2_mmu.stage2_tlb.walker.requestOrigin_Requested::total            0                       # Table walker requests started/completed, data/inst
system.cpu.itb.stage2_mmu.stage2_tlb.walker.requestOrigin_Completed::Data            0                       # Table walker requests started/completed, data/inst
system.cpu.itb.stage2_mmu.stage2_tlb.walker.requestOrigin_Completed::Inst            0                       # Table walker requests started/completed, data/inst
system.cpu.itb.stage2_mmu.stage2_tlb.walker.requestOrigin_Completed::total            0                       # Table walker requests started/completed, data/inst
system.cpu.itb.stage2_mmu.stage2_tlb.walker.requestOrigin::total            0                       # Table walker requests started/completed, data/inst
system.cpu.itb.stage2_mmu.stage2_tlb.walker.power_state.pwrStateResidencyTicks::UNDEFINED  68821830000                       # Cumulative time (in ticks) in various power states
system.cpu.itb.walker.walks                         0                       # Table walker walks requested
system.cpu.itb.walker.requestOrigin_Requested::Data            0                       # Table walker requests started/completed, data/inst
system.cpu.itb.walker.requestOrigin_Requested::Inst            0                       # Table walker requests started/completed, data/inst
system.cpu.itb.walker.requestOrigin_Requested::total            0                       # Table walker requests started/completed, data/inst
system.cpu.itb.walker.requestOrigin_Completed::Data            0                       # Table walker requests started/completed, data/inst
system.cpu.itb.walker.requestOrigin_Completed::Inst            0                       # Table walker requests started/completed, data/inst
system.cpu.itb.walker.requestOrigin_Completed::total            0                       # Table walker requests started/completed, data/inst
system.cpu.itb.walker.requestOrigin::total            0                       # Table walker requests started/completed, data/inst
system.cpu.itb.walker.power_state.pwrStateResidencyTicks::UNDEFINED  68821830000                       # Cumulative time (in ticks) in various power states
system.cpu.power_state.pwrStateResidencyTicks::ON  68821830000                       # Cumulative time (in ticks) in various power states
system.cpu.thread_0.numInsts                100000000                       # Number of Instructions committed
system.cpu.thread_0.numOps                  116826593                       # Number of Ops committed
system.cpu.thread_0.numMemRefs                      0                       # Number of Memory References
system.cpu_clk_domain.clock                       500                       # Clock period in ticks
system.cpu_voltage_domain.voltage                   1                       # Voltage in Volts
system.l2.demand_hits::.cpu.inst                 1452                       # number of demand (read+write) hits
system.l2.demand_hits::.cpu.data                 1910                       # number of demand (read+write) hits
system.l2.demand_hits::total                     3362                       # number of demand (read+write) hits
system.l2.overall_hits::.cpu.inst                1452                       # number of overall hits
system.l2.overall_hits::.cpu.data                1910                       # number of overall hits
system.l2.overall_hits::total                    3362                       # number of overall hits
system.l2.demand_misses::.cpu.inst               1176                       # number of demand (read+write) misses
system.l2.demand_misses::.cpu.data               4478                       # number of demand (read+write) misses
system.l2.demand_misses::total                   5654                       # number of demand (read+write) misses
system.l2.overall_misses::.cpu.inst              1176                       # number of overall misses
system.l2.overall_misses::.cpu.data              4478                       # number of overall misses
system.l2.overall_misses::total                  5654                       # number of overall misses
system.l2.demand_miss_latency::.cpu.inst     88261000                       # number of demand (read+write) miss cycles
system.l2.demand_miss_latency::.cpu.data    341815500                       # number of demand (read+write) miss cycles
system.l2.demand_miss_latency::total        430076500                       # number of demand (read+write) miss cycles
system.l2.overall_miss_latency::.cpu.inst     88261000                       # number of overall miss cycles
system.l2.overall_miss_latency::.cpu.data    341815500                       # number of overall miss cycles
system.l2.overall_miss_latency::total       430076500                       # number of overall miss cycles
system.l2.demand_accesses::.cpu.inst             2628                       # number of demand (read+write) accesses
system.l2.demand_accesses::.cpu.data             6388                       # number of demand (read+write) accesses
system.l2.demand_accesses::total                 9016                       # number of demand (read+write) accesses
system.l2.overall_accesses::.cpu.inst            2628                       # number of overall (read+write) accesses
system.l2.overall_accesses::.cpu.data            6388                       # number of overall (read+write) accesses
system.l2.overall_accesses::total                9016                       # number of overall (read+write) accesses
system.l2.demand_miss_rate::.cpu.inst        0.447489                       # miss rate for demand accesses
system.l2.demand_miss_rate::.cpu.data        0.701002                       # miss rate for demand accesses
system.l2.demand_miss_rate::total            0.627107                       # miss rate for demand accesses
system.l2.overall_miss_rate::.cpu.inst       0.447489                       # miss rate for overall accesses
system.l2.overall_miss_rate::.cpu.data       0.701002                       # miss rate for overall accesses
system.l2.overall_miss_rate::total           0.627107                       # miss rate for overall accesses
system.l2.demand_avg_miss_latency::.cpu.inst 75051.870748                       # average overall miss latency
system.l2.demand_avg_miss_latency::.cpu.data 76332.179544                       # average overall miss latency
system.l2.demand_avg_miss_latency::total 76065.882561                       # average overall miss latency
system.l2.overall_avg_miss_latency::.cpu.inst 75051.870748                       # average overall miss latency
system.l2.overall_avg_miss_latency::.cpu.data 76332.179544                       # average overall miss latency
system.l2.overall_avg_miss_latency::total 76065.882561                       # average overall miss latency
system.l2.blocked_cycles::no_mshrs                  0                       # number of cycles access was blocked
system.l2.blocked_cycles::no_targets                0                       # number of cycles access was blocked
system.l2.blocked::no_mshrs                         0                       # number of cycles access was blocked
system.l2.blocked::no_targets                       0                       # number of cycles access was blocked
system.l2.avg_blocked_cycles::no_mshrs            nan                       # average number of cycles each access was blocked
system.l2.avg_blocked_cycles::no_targets          nan                       # average number of cycles each access was blocked
system.l2.demand_mshr_hits::.cpu.inst               2                       # number of demand (read+write) MSHR hits
system.l2.demand_mshr_hits::.cpu.data               5                       # number of demand (read+write) MSHR hits
system.l2.demand_mshr_hits::total                   7                       # number of demand (read+write) MSHR hits
system.l2.overall_mshr_hits::.cpu.inst              2                       # number of overall MSHR hits
system.l2.overall_mshr_hits::.cpu.data              5                       # number of overall MSHR hits
system.l2.overall_mshr_hits::total                  7                       # number of overall MSHR hits
system.l2.demand_mshr_misses::.cpu.inst          1174                       # number of demand (read+write) MSHR misses
system.l2.demand_mshr_misses::.cpu.data          4473                       # number of demand (read+write) MSHR misses
system.l2.demand_mshr_misses::total              5647                       # number of demand (read+write) MSHR misses
system.l2.overall_mshr_misses::.cpu.inst         1174                       # number of overall MSHR misses
system.l2.overall_mshr_misses::.cpu.data         4473                       # number of overall MSHR misses
system.l2.overall_mshr_misses::total             5647                       # number of overall MSHR misses
system.l2.demand_mshr_miss_latency::.cpu.inst     76439000                       # number of demand (read+write) MSHR miss cycles
system.l2.demand_mshr_miss_latency::.cpu.data    296753000                       # number of demand (read+write) MSHR miss cycles
system.l2.demand_mshr_miss_latency::total    373192000                       # number of demand (read+write) MSHR miss cycles
system.l2.overall_mshr_miss_latency::.cpu.inst     76439000                       # number of overall MSHR miss cycles
system.l2.overall_mshr_miss_latency::.cpu.data    296753000                       # number of overall MSHR miss cycles
system.l2.overall_mshr_miss_latency::total    373192000                       # number of overall MSHR miss cycles
system.l2.demand_mshr_miss_rate::.cpu.inst     0.446728                       # mshr miss rate for demand accesses
system.l2.demand_mshr_miss_rate::.cpu.data     0.700219                       # mshr miss rate for demand accesses
system.l2.demand_mshr_miss_rate::total       0.626331                       # mshr miss rate for demand accesses
system.l2.overall_mshr_miss_rate::.cpu.inst     0.446728                       # mshr miss rate for overall accesses
system.l2.overall_mshr_miss_rate::.cpu.data     0.700219                       # mshr miss rate for overall accesses
system.l2.overall_mshr_miss_rate::total      0.626331                       # mshr miss rate for overall accesses
system.l2.demand_avg_mshr_miss_latency::.cpu.inst 65109.880750                       # average overall mshr miss latency
system.l2.demand_avg_mshr_miss_latency::.cpu.data 66343.170132                       # average overall mshr miss latency
system.l2.demand_avg_mshr_miss_latency::total 66086.771737                       # average overall mshr miss latency
system.l2.overall_avg_mshr_miss_latency::.cpu.inst 65109.880750                       # average overall mshr miss latency
system.l2.overall_avg_mshr_miss_latency::.cpu.data 66343.170132                       # average overall mshr miss latency
system.l2.overall_avg_mshr_miss_latency::total 66086.771737                       # average overall mshr miss latency
system.l2.replacements                              0                       # number of replacements
system.l2.WritebackDirty_hits::.writebacks         1707                       # number of WritebackDirty hits
system.l2.WritebackDirty_hits::total             1707                       # number of WritebackDirty hits
system.l2.WritebackDirty_accesses::.writebacks         1707                       # number of WritebackDirty accesses(hits+misses)
system.l2.WritebackDirty_accesses::total         1707                       # number of WritebackDirty accesses(hits+misses)
system.l2.WritebackClean_hits::.writebacks         2049                       # number of WritebackClean hits
system.l2.WritebackClean_hits::total             2049                       # number of WritebackClean hits
system.l2.WritebackClean_accesses::.writebacks         2049                       # number of WritebackClean accesses(hits+misses)
system.l2.WritebackClean_accesses::total         2049                       # number of WritebackClean accesses(hits+misses)
system.l2.ReadExReq_hits::.cpu.data               883                       # number of ReadExReq hits
system.l2.ReadExReq_hits::total                   883                       # number of ReadExReq hits
system.l2.ReadExReq_misses::.cpu.data            3681                       # number of ReadExReq misses
system.l2.ReadExReq_misses::total                3681                       # number of ReadExReq misses
system.l2.ReadExReq_miss_latency::.cpu.data    278319000                       # number of ReadExReq miss cycles
system.l2.ReadExReq_miss_latency::total     278319000                       # number of ReadExReq miss cycles
system.l2.ReadExReq_accesses::.cpu.data          4564                       # number of ReadExReq accesses(hits+misses)
system.l2.ReadExReq_accesses::total              4564                       # number of ReadExReq accesses(hits+misses)
system.l2.ReadExReq_miss_rate::.cpu.data     0.806529                       # miss rate for ReadExReq accesses
system.l2.ReadExReq_miss_rate::total         0.806529                       # miss rate for ReadExReq accesses
system.l2.ReadExReq_avg_miss_latency::.cpu.data 75609.616952                       # average ReadExReq miss latency
system.l2.ReadExReq_avg_miss_latency::total 75609.616952                       # average ReadExReq miss latency
system.l2.ReadExReq_mshr_misses::.cpu.data         3681                       # number of ReadExReq MSHR misses
system.l2.ReadExReq_mshr_misses::total           3681                       # number of ReadExReq MSHR misses
system.l2.ReadExReq_mshr_miss_latency::.cpu.data    241509000                       # number of ReadExReq MSHR miss cycles
system.l2.ReadExReq_mshr_miss_latency::total    241509000                       # number of ReadExReq MSHR miss cycles
system.l2.ReadExReq_mshr_miss_rate::.cpu.data     0.806529                       # mshr miss rate for ReadExReq accesses
system.l2.ReadExReq_mshr_miss_rate::total     0.806529                       # mshr miss rate for ReadExReq accesses
system.l2.ReadExReq_avg_mshr_miss_latency::.cpu.data 65609.616952                       # average ReadExReq mshr miss latency
system.l2.ReadExReq_avg_mshr_miss_latency::total 65609.616952                       # average ReadExReq mshr miss latency
system.l2.ReadCleanReq_hits::.cpu.inst           1452                       # number of ReadCleanReq hits
system.l2.ReadCleanReq_hits::total               1452                       # number of ReadCleanReq hits
system.l2.ReadCleanReq_misses::.cpu.inst         1176                       # number of ReadCleanReq misses
system.l2.ReadCleanReq_misses::total             1176                       # number of ReadCleanReq misses
system.l2.ReadCleanReq_miss_latency::.cpu.inst     88261000                       # number of ReadCleanReq miss cycles
system.l2.ReadCleanReq_miss_latency::total     88261000                       # number of ReadCleanReq miss cycles
system.l2.ReadCleanReq_accesses::.cpu.inst         2628                       # number of ReadCleanReq accesses(hits+misses)
system.l2.ReadCleanReq_accesses::total           2628                       # number of ReadCleanReq accesses(hits+misses)
system.l2.ReadCleanReq_miss_rate::.cpu.inst     0.447489                       # miss rate for ReadCleanReq accesses
system.l2.ReadCleanReq_miss_rate::total      0.447489                       # miss rate for ReadCleanReq accesses
system.l2.ReadCleanReq_avg_miss_latency::.cpu.inst 75051.870748                       # average ReadCleanReq miss latency
system.l2.ReadCleanReq_avg_miss_latency::total 75051.870748                       # average ReadCleanReq miss latency
system.l2.ReadCleanReq_mshr_hits::.cpu.inst            2                       # number of ReadCleanReq MSHR hits
system.l2.ReadCleanReq_mshr_hits::total             2                       # number of ReadCleanReq MSHR hits
system.l2.ReadCleanReq_mshr_misses::.cpu.inst         1174                       # number of ReadCleanReq MSHR misses
system.l2.ReadCleanReq_mshr_misses::total         1174                       # number of ReadCleanReq MSHR misses
system.l2.ReadCleanReq_mshr_miss_latency::.cpu.inst     76439000                       # number of ReadCleanReq MSHR miss cycles
system.l2.ReadCleanReq_mshr_miss_latency::total     76439000                       # number of ReadCleanReq MSHR miss cycles
system.l2.ReadCleanReq_mshr_miss_rate::.cpu.inst     0.446728                       # mshr miss rate for ReadCleanReq accesses
system.l2.ReadCleanReq_mshr_miss_rate::total     0.446728                       # mshr miss rate for ReadCleanReq accesses
system.l2.ReadCleanReq_avg_mshr_miss_latency::.cpu.inst 65109.880750                       # average ReadCleanReq mshr miss latency
system.l2.ReadCleanReq_avg_mshr_miss_latency::total 65109.880750                       # average ReadCleanReq mshr miss latency
system.l2.ReadSharedReq_hits::.cpu.data          1027                       # number of ReadSharedReq hits
system.l2.ReadSharedReq_hits::total              1027                       # number of ReadSharedReq hits
system.l2.ReadSharedReq_misses::.cpu.data          797                       # number of ReadSharedReq misses
system.l2.ReadSharedReq_misses::total             797                       # number of ReadSharedReq misses
system.l2.ReadSharedReq_miss_latency::.cpu.data     63496500                       # number of ReadSharedReq miss cycles
system.l2.ReadSharedReq_miss_latency::total     63496500                       # number of ReadSharedReq miss cycles
system.l2.ReadSharedReq_accesses::.cpu.data         1824                       # number of ReadSharedReq accesses(hits+misses)
system.l2.ReadSharedReq_accesses::total          1824                       # number of ReadSharedReq accesses(hits+misses)
system.l2.ReadSharedReq_miss_rate::.cpu.data     0.436952                       # miss rate for ReadSharedReq accesses
system.l2.ReadSharedReq_miss_rate::total     0.436952                       # miss rate for ReadSharedReq accesses
system.l2.ReadSharedReq_avg_miss_latency::.cpu.data 79669.385194                       # average ReadSharedReq miss latency
system.l2.ReadSharedReq_avg_miss_latency::total 79669.385194                       # average ReadSharedReq miss latency
system.l2.ReadSharedReq_mshr_hits::.cpu.data            5                       # number of ReadSharedReq MSHR hits
system.l2.ReadSharedReq_mshr_hits::total            5                       # number of ReadSharedReq MSHR hits
system.l2.ReadSharedReq_mshr_misses::.cpu.data          792                       # number of ReadSharedReq MSHR misses
system.l2.ReadSharedReq_mshr_misses::total          792                       # number of ReadSharedReq MSHR misses
system.l2.ReadSharedReq_mshr_miss_latency::.cpu.data     55244000                       # number of ReadSharedReq MSHR miss cycles
system.l2.ReadSharedReq_mshr_miss_latency::total     55244000                       # number of ReadSharedReq MSHR miss cycles
system.l2.ReadSharedReq_mshr_miss_rate::.cpu.data     0.434211                       # mshr miss rate for ReadSharedReq accesses
system.l2.ReadSharedReq_mshr_miss_rate::total     0.434211                       # mshr miss rate for ReadSharedReq accesses
system.l2.ReadSharedReq_avg_mshr_miss_latency::.cpu.data 69752.525253                       # average ReadSharedReq mshr miss latency
system.l2.ReadSharedReq_avg_mshr_miss_latency::total 69752.525253                       # average ReadSharedReq mshr miss latency
system.l2.power_state.pwrStateResidencyTicks::UNDEFINED  68821830000                       # Cumulative time (in ticks) in various power states
system.l2.tags.tagsinuse                  5545.092574                       # Cycle average of tags in use
system.l2.tags.total_refs                       13106                       # Total number of references to valid blocks.
system.l2.tags.sampled_refs                      5647                       # Sample count of references to valid blocks.
system.l2.tags.avg_refs                      2.320878                       # Average number of references to valid blocks.
system.l2.tags.warmup_cycle                     77000                       # Cycle when the warmup percentage was hit.
system.l2.tags.occ_blocks::.cpu.inst      1170.562420                       # Average occupied blocks per requestor
system.l2.tags.occ_blocks::.cpu.data      4374.530154                       # Average occupied blocks per requestor
system.l2.tags.occ_percent::.cpu.inst        0.035723                       # Average percentage of cache occupancy
system.l2.tags.occ_percent::.cpu.data        0.133500                       # Average percentage of cache occupancy
system.l2.tags.occ_percent::total            0.169223                       # Average percentage of cache occupancy
system.l2.tags.occ_task_id_blocks::1024          5647                       # Occupied blocks per task id
system.l2.tags.age_task_id_blocks_1024::4         5647                       # Occupied blocks per task id
system.l2.tags.occ_task_id_percent::1024     0.172333                       # Percentage of cache occupancy per task id
system.l2.tags.tag_accesses                    110551                       # Number of tag accesses
system.l2.tags.data_accesses                   110551                       # Number of data accesses
system.l2.tags.power_state.pwrStateResidencyTicks::UNDEFINED  68821830000                       # Cumulative time (in ticks) in various power states
system.mem_ctrls.avgPriority_.cpu.inst::samples      1174.00                       # Average QoS priority value for accepted requests
system.mem_ctrls.avgPriority_.cpu.data::samples      4473.00                       # Average QoS priority value for accepted requests
system.mem_ctrls.priorityMinLatency      0.000000018750                       # per QoS priority minimum request to response latency (s)
system.mem_ctrls.priorityMaxLatency      0.000000577000                       # per QoS priority maximum request to response latency (s)
system.mem_ctrls.numReadWriteTurnArounds            0                       # Number of turnarounds from READ to WRITE
system.mem_ctrls.numWriteReadTurnArounds            0                       # Number of turnarounds from WRITE to READ
system.mem_ctrls.numStayReadState               28951                       # Number of times bus staying in READ state
system.mem_ctrls.numStayWriteState                  0                       # Number of times bus staying in WRITE state
system.mem_ctrls.readReqs                        5647                       # Number of read requests accepted
system.mem_ctrls.writeReqs                          0                       # Number of write requests accepted
system.mem_ctrls.readBursts                      5647                       # Number of controller read bursts, including those serviced by the write queue
system.mem_ctrls.writeBursts                        0                       # Number of controller write bursts, including those merged in the write queue
system.mem_ctrls.servicedByWrQ                      0                       # Number of controller read bursts serviced by the write queue
system.mem_ctrls.mergedWrBursts                     0                       # Number of controller write bursts merged with an existing one
system.mem_ctrls.neitherReadNorWriteReqs            0                       # Number of requests that are neither read nor write
system.mem_ctrls.avgRdQLen                       1.00                       # Average read queue length when enqueuing
system.mem_ctrls.avgWrQLen                       0.00                       # Average write queue length when enqueuing
system.mem_ctrls.numRdRetry                         0                       # Number of times read queue was full causing retry
system.mem_ctrls.numWrRetry                         0                       # Number of times write queue was full causing retry
system.mem_ctrls.readPktSize::0                     0                       # Read request sizes (log2)
system.mem_ctrls.readPktSize::1                     0                       # Read request sizes (log2)
system.mem_ctrls.readPktSize::2                     0                       # Read request sizes (log2)
system.mem_ctrls.readPktSize::3                     0                       # Read request sizes (log2)
system.mem_ctrls.readPktSize::4                     0                       # Read request sizes (log2)
system.mem_ctrls.readPktSize::5                     0                       # Read request sizes (log2)
system.mem_ctrls.readPktSize::6                  5647                       # Read request sizes (log2)
system.mem_ctrls.writePktSize::0                    0                       # Write request sizes (log2)
system.mem_ctrls.writePktSize::1                    0                       # Write request sizes (log2)
system.mem_ctrls.writePktSize::2                    0                       # Write request sizes (log2)
system.mem_ctrls.writePktSize::3                    0                       # Write request sizes (log2)
system.mem_ctrls.writePktSize::4                    0                       # Write request sizes (log2)
system.mem_ctrls.writePktSize::5                    0                       # Write request sizes (log2)
system.mem_ctrls.writePktSize::6                    0                       # Write request sizes (log2)
system.mem_ctrls.rdQLenPdf::0                    5203                       # What read queue length does an incoming req see
system.mem_ctrls.rdQLenPdf::1                     416                       # What read queue length does an incoming req see
system.mem_ctrls.rdQLenPdf::2                      26                       # What read queue length does an incoming req see
system.mem_ctrls.rdQLenPdf::3                       2                       # What read queue length does an incoming req see
system.mem_ctrls.rdQLenPdf::4                       0                       # What read queue length does an incoming req see
system.mem_ctrls.rdQLenPdf::5                       0                       # What read queue length does an incoming req see
system.mem_ctrls.rdQLenPdf::6                       0                       # What read queue length does an incoming req see
system.mem_ctrls.rdQLenPdf::7                       0                       # What read queue length does an incoming req see
system.mem_ctrls.rdQLenPdf::8                       0                       # What read queue length does an incoming req see
system.mem_ctrls.rdQLenPdf::9                       0                       # What read queue length does an incoming req see
system.mem_ctrls.rdQLenPdf::10                      0                       # What read queue length does an incoming req see
system.mem_ctrls.rdQLenPdf::11                      0                       # What read queue length does an incoming req see
system.mem_ctrls.rdQLenPdf::12                      0                       # What read queue length does an incoming req see
system.mem_ctrls.rdQLenPdf::13                      0                       # What read queue length does an incoming req see
system.mem_ctrls.rdQLenPdf::14                      0                       # What read queue length does an incoming req see
system.mem_ctrls.rdQLenPdf::15                      0                       # What read queue length does an incoming req see
[...]
system.mem_ctrls.dram.bw_read::.cpu.data      4159610                       # Total read bandwidth from this memory (bytes/s)
system.mem_ctrls.dram.bw_read::total          5251357                       # Total read bandwidth from this memory (bytes/s)
system.mem_ctrls.dram.bw_inst_read::.cpu.inst      1091747                       # Instruction read bandwidth from this memory (bytes/s)
system.mem_ctrls.dram.bw_inst_read::total      1091747                       # Instruction read bandwidth from this memory (bytes/s)
system.mem_ctrls.dram.bw_total::.cpu.inst      1091747                       # Total bandwidth to/from this memory (bytes/s)
system.mem_ctrls.dram.bw_total::.cpu.data      4159610                       # Total bandwidth to/from this memory (bytes/s)
system.mem_ctrls.dram.bw_total::total         5251357                       # Total bandwidth to/from this memory (bytes/s)
system.mem_ctrls.dram.readBursts                 5647                       # Number of DRAM read bursts
system.mem_ctrls.dram.writeBursts                   0                       # Number of DRAM write bursts
system.mem_ctrls.dram.perBankRdBursts::0          419                       # Per bank write bursts
system.mem_ctrls.dram.perBankRdBursts::1          398                       # Per bank write bursts
system.mem_ctrls.dram.perBankRdBursts::2          364                       # Per bank write bursts
system.mem_ctrls.dram.perBankRdBursts::3          335                       # Per bank write bursts
system.mem_ctrls.dram.perBankRdBursts::4          352                       # Per bank write bursts
system.mem_ctrls.dram.perBankRdBursts::5          301                       # Per bank write bursts
system.mem_ctrls.dram.perBankRdBursts::6          376                       # Per bank write bursts
system.mem_ctrls.dram.perBankRdBursts::7          370                       # Per bank write bursts
system.mem_ctrls.dram.perBankRdBursts::8          224                       # Per bank write bursts
system.mem_ctrls.dram.perBankRdBursts::9          330                       # Per bank write bursts
system.mem_ctrls.dram.perBankRdBursts::10          294                       # Per bank write bursts
system.mem_ctrls.dram.perBankRdBursts::11          347                       # Per bank write bursts
system.mem_ctrls.dram.perBankRdBursts::12          372                       # Per bank write bursts
system.mem_ctrls.dram.perBankRdBursts::13          409                       # Per bank write bursts
system.mem_ctrls.dram.perBankRdBursts::14          422                       # Per bank write bursts
system.mem_ctrls.dram.perBankRdBursts::15          334                       # Per bank write bursts
system.mem_ctrls.dram.perBankWrBursts::0            0                       # Per bank write bursts
system.mem_ctrls.dram.perBankWrBursts::1            0                       # Per bank write bursts
system.mem_ctrls.dram.perBankWrBursts::2            0                       # Per bank write bursts
system.mem_ctrls.dram.perBankWrBursts::3            0                       # Per bank write bursts
system.mem_ctrls.dram.perBankWrBursts::4            0                       # Per bank write bursts
system.mem_ctrls.dram.perBankWrBursts::5            0                       # Per bank write bursts
system.mem_ctrls.dram.perBankWrBursts::6            0                       # Per bank write bursts
system.mem_ctrls.dram.perBankWrBursts::7            0                       # Per bank write bursts
system.mem_ctrls.dram.perBankWrBursts::8            0                       # Per bank write bursts
system.mem_ctrls.dram.perBankWrBursts::9            0                       # Per bank write bursts
system.mem_ctrls.dram.perBankWrBursts::10            0                       # Per bank write bursts
system.mem_ctrls.dram.perBankWrBursts::11            0                       # Per bank write bursts
system.mem_ctrls.dram.perBankWrBursts::12            0                       # Per bank write bursts
system.mem_ctrls.dram.perBankWrBursts::13            0                       # Per bank write bursts
system.mem_ctrls.dram.perBankWrBursts::14            0                       # Per bank write bursts
system.mem_ctrls.dram.perBankWrBursts::15            0                       # Per bank write bursts
system.mem_ctrls.dram.totQLat                35288250                       # Total ticks spent queuing
system.mem_ctrls.dram.totBusLat              28235000                       # Total ticks spent in databus transfers
system.mem_ctrls.dram.totMemAccLat          141169500                       # Total ticks spent from burst creation until serviced by the DRAM
system.mem_ctrls.dram.avgQLat                 6249.03                       # Average queueing delay per DRAM burst
system.mem_ctrls.dram.avgBusLat               5000.00                       # Average bus latency per DRAM burst
system.mem_ctrls.dram.avgMemAccLat           24999.03                       # Average memory access latency per DRAM burst
system.mem_ctrls.dram.readRowHits                4761                       # Number of row buffer hits during reads
system.mem_ctrls.dram.writeRowHits                  0                       # Number of row buffer hits during writes
system.mem_ctrls.dram.readRowHitRate            84.31                       # Row buffer hit rate for reads
system.mem_ctrls.dram.writeRowHitRate             nan                       # Row buffer hit rate for writes
system.mem_ctrls.dram.bytesPerActivate::samples          886                       # Bytes accessed per row activation
system.mem_ctrls.dram.bytesPerActivate::mean   407.909707                       # Bytes accessed per row activation
system.mem_ctrls.dram.bytesPerActivate::gmean   263.301159                       # Bytes accessed per row activation
system.mem_ctrls.dram.bytesPerActivate::stdev   346.888192                       # Bytes accessed per row activation
system.mem_ctrls.dram.bytesPerActivate::0-127          198     22.35%     22.35% # Bytes accessed per row activation
system.mem_ctrls.dram.bytesPerActivate::128-255          205     23.14%     45.49% # Bytes accessed per row activation
system.mem_ctrls.dram.bytesPerActivate::256-383           94     10.61%     56.09% # Bytes accessed per row activation
system.mem_ctrls.dram.bytesPerActivate::384-511          113     12.75%     68.85% # Bytes accessed per row activation
system.mem_ctrls.dram.bytesPerActivate::512-639           42      4.74%     73.59% # Bytes accessed per row activation
system.mem_ctrls.dram.bytesPerActivate::640-767           23      2.60%     76.19% # Bytes accessed per row activation
system.mem_ctrls.dram.bytesPerActivate::768-895           30      3.39%     79.57% # Bytes accessed per row activation
system.mem_ctrls.dram.bytesPerActivate::896-1023           57      6.43%     86.00% # Bytes accessed per row activation
system.mem_ctrls.dram.bytesPerActivate::1024-1151          124     14.00%    100.00% # Bytes accessed per row activation
system.mem_ctrls.dram.bytesPerActivate::total          886                       # Bytes accessed per row activation
system.mem_ctrls.dram.bytesRead                361408                       # Total number of bytes read from DRAM
system.mem_ctrls.dram.bytesWritten                  0                       # Total number of bytes written to DRAM
system.mem_ctrls.dram.avgRdBW                5.251357                       # Average DRAM read bandwidth in MiBytes/s
system.mem_ctrls.dram.avgWrBW                       0                       # Average DRAM write bandwidth in MiBytes/s
system.mem_ctrls.dram.peakBW                 12800.00                       # Theoretical peak bandwidth in MiByte/s
system.mem_ctrls.dram.busUtil                    0.04                       # Data bus utilization in percentage
system.mem_ctrls.dram.busUtilRead                0.04                       # Data bus utilization in percentage for reads
system.mem_ctrls.dram.busUtilWrite               0.00                       # Data bus utilization in percentage for writes
system.mem_ctrls.dram.pageHitRate               84.31                       # Row buffer hit rate, read and write combined
system.mem_ctrls.dram.power_state.pwrStateResidencyTicks::UNDEFINED  68821830000                       # Cumulative time (in ticks) in various power states
system.mem_ctrls.dram.rank0.actEnergy         3555720                       # Energy for activate commands per rank (pJ)
system.mem_ctrls.dram.rank0.preEnergy         1889910                       # Energy for precharge commands per rank (pJ)
system.mem_ctrls.dram.rank0.readEnergy       20813100                       # Energy for read commands per rank (pJ)
system.mem_ctrls.dram.rank0.writeEnergy             0                       # Energy for write commands per rank (pJ)
system.mem_ctrls.dram.rank0.refreshEnergy 5432188320.000001                       # Energy for refresh commands per rank (pJ)
system.mem_ctrls.dram.rank0.actBackEnergy   1508511270                       # Energy for active background per rank (pJ)
system.mem_ctrls.dram.rank0.preBackEnergy  25157257440                       # Energy for precharge background per rank (pJ)
system.mem_ctrls.dram.rank0.actPowerDownEnergy            0                       # Energy for active power-down per rank (pJ)
system.mem_ctrls.dram.rank0.prePowerDownEnergy            0                       # Energy for precharge power-down per rank (pJ)
system.mem_ctrls.dram.rank0.selfRefreshEnergy            0                       # Energy for self refresh per rank (pJ)
system.mem_ctrls.dram.rank0.totalEnergy   32124215760                       # Total energy per rank (pJ)
system.mem_ctrls.dram.rank0.averagePower   466.773635                       # Core power per rank (mW)
system.mem_ctrls.dram.rank0.totalIdleTime            0                       # Total Idle time Per DRAM Rank
system.mem_ctrls.dram.rank0.pwrStateTime::IDLE  65389010750                       # Time in different power states
system.mem_ctrls.dram.rank0.pwrStateTime::REF   2297880000                       # Time in different power states
system.mem_ctrls.dram.rank0.pwrStateTime::SREF            0                       # Time in different power states
system.mem_ctrls.dram.rank0.pwrStateTime::PRE_PDN            0                       # Time in different power states
system.mem_ctrls.dram.rank0.pwrStateTime::ACT   1134939250                       # Time in different power states
system.mem_ctrls.dram.rank0.pwrStateTime::ACT_PDN            0                       # Time in different power states
system.mem_ctrls.dram.rank1.actEnergy         2770320                       # Energy for activate commands per rank (pJ)
system.mem_ctrls.dram.rank1.preEnergy         1472460                       # Energy for precharge commands per rank (pJ)
system.mem_ctrls.dram.rank1.readEnergy       19506480                       # Energy for read commands per rank (pJ)
system.mem_ctrls.dram.rank1.writeEnergy             0                       # Energy for write commands per rank (pJ)
system.mem_ctrls.dram.rank1.refreshEnergy 5432188320.000001                       # Energy for refresh commands per rank (pJ)
system.mem_ctrls.dram.rank1.actBackEnergy   1420783710                       # Energy for active background per rank (pJ)
system.mem_ctrls.dram.rank1.preBackEnergy  25231133280                       # Energy for precharge background per rank (pJ)
system.mem_ctrls.dram.rank1.actPowerDownEnergy            0                       # Energy for active power-down per rank (pJ)
system.mem_ctrls.dram.rank1.prePowerDownEnergy            0                       # Energy for precharge power-down per rank (pJ)
system.mem_ctrls.dram.rank1.selfRefreshEnergy            0                       # Energy for self refresh per rank (pJ)
system.mem_ctrls.dram.rank1.totalEnergy   32107854570                       # Total energy per rank (pJ)
system.mem_ctrls.dram.rank1.averagePower   466.535902                       # Core power per rank (mW)
system.mem_ctrls.dram.rank1.totalIdleTime            0                       # Total Idle time Per DRAM Rank
system.mem_ctrls.dram.rank1.pwrStateTime::IDLE  65582111500                       # Time in different power states
system.mem_ctrls.dram.rank1.pwrStateTime::REF   2297880000                       # Time in different power states
system.mem_ctrls.dram.rank1.pwrStateTime::SREF            0                       # Time in different power states
system.mem_ctrls.dram.rank1.pwrStateTime::PRE_PDN            0                       # Time in different power states
system.mem_ctrls.dram.rank1.pwrStateTime::ACT    941838500                       # Time in different power states
system.mem_ctrls.dram.rank1.pwrStateTime::ACT_PDN            0                       # Time in different power states
system.mem_ctrls.power_state.pwrStateResidencyTicks::UNDEFINED  68821830000                       # Cumulative time (in ticks) in various power states
system.membus.trans_dist::ReadResp               1966                       # Transaction distribution
system.membus.trans_dist::ReadExReq              3681                       # Transaction distribution
system.membus.trans_dist::ReadExResp             3681                       # Transaction distribution
system.membus.trans_dist::ReadSharedReq          1966                       # Transaction distribution
system.membus.pkt_count_system.l2.mem_side_port::system.mem_ctrls.port        11294                       # Packet count per connected requestor and responder (bytes)
system.membus.pkt_count::total                  11294                       # Packet count per connected requestor and responder (bytes)
system.membus.pkt_size_system.l2.mem_side_port::system.mem_ctrls.port       361408                       # Cumulative packet size per connected requestor and responder (bytes)
system.membus.pkt_size::total                  361408                       # Cumulative packet size per connected requestor and responder (bytes)
system.membus.snoops                                0                       # Total snoops (count)
system.membus.snoopTraffic                          0                       # Total snoop traffic (bytes)
system.membus.snoop_fanout::samples              5647                       # Request fanout histogram
system.membus.snoop_fanout::mean                    0                       # Request fanout histogram
system.membus.snoop_fanout::stdev                   0                       # Request fanout histogram
system.membus.snoop_fanout::underflows              0      0.00%      0.00% # Request fanout histogram
system.membus.snoop_fanout::0                    5647    100.00%    100.00% # Request fanout histogram
system.membus.snoop_fanout::1                       0      0.00%    100.00% # Request fanout histogram
system.membus.snoop_fanout::overflows               0      0.00%    100.00% # Request fanout histogram
system.membus.snoop_fanout::min_value               0                       # Request fanout histogram
system.membus.snoop_fanout::max_value               0                       # Request fanout histogram
system.membus.snoop_fanout::total                5647                       # Request fanout histogram
system.membus.power_state.pwrStateResidencyTicks::UNDEFINED  68821830000                       # Cumulative time (in ticks) in various power states
system.membus.reqLayer0.occupancy             7145000                       # Layer occupancy (ticks)
system.membus.reqLayer0.utilization               0.0                       # Layer utilization (%)
system.membus.respLayer1.occupancy           29894500                       # Layer occupancy (ticks)
system.membus.respLayer1.utilization              0.0                       # Layer utilization (%)
system.tol2bus.trans_dist::ReadResp              4452                       # Transaction distribution
system.tol2bus.trans_dist::WritebackDirty         1707                       # Transaction distribution
system.tol2bus.trans_dist::WritebackClean         2155                       # Transaction distribution
system.tol2bus.trans_dist::CleanEvict             684                       # Transaction distribution
system.tol2bus.trans_dist::ReadExReq             4564                       # Transaction distribution
system.tol2bus.trans_dist::ReadExResp            4564                       # Transaction distribution
system.tol2bus.trans_dist::ReadCleanReq          2628                       # Transaction distribution
system.tol2bus.trans_dist::ReadSharedReq         1824                       # Transaction distribution
system.tol2bus.pkt_count_system.cpu.icache.mem_side_port::system.l2.cpu_side_port         7411                       # Packet count per connected requestor and responder (bytes)
system.tol2bus.pkt_count_system.cpu.dcache.mem_side_port::system.l2.cpu_side_port        15167                       # Packet count per connected requestor and responder (bytes)
system.tol2bus.pkt_count::total                 22578                       # Packet count per connected requestor and responder (bytes)
system.tol2bus.pkt_size_system.cpu.icache.mem_side_port::system.l2.cpu_side_port       306112                       # Cumulative packet size per connected requestor and responder (bytes)
system.tol2bus.pkt_size_system.cpu.dcache.mem_side_port::system.l2.cpu_side_port       518080                       # Cumulative packet size per connected requestor and responder (bytes)
system.tol2bus.pkt_size::total                 824192                       # Cumulative packet size per connected requestor and responder (bytes)
system.tol2bus.snoops                               0                       # Total snoops (count)
system.tol2bus.snoopTraffic                         0                       # Total snoop traffic (bytes)
system.tol2bus.snoop_fanout::samples             9016                       # Request fanout histogram
system.tol2bus.snoop_fanout::mean            0.051797                       # Request fanout histogram
system.tol2bus.snoop_fanout::stdev           0.221629                       # Request fanout histogram
system.tol2bus.snoop_fanout::underflows             0      0.00%      0.00% # Request fanout histogram
system.tol2bus.snoop_fanout::0                   8549     94.82%     94.82% # Request fanout histogram
system.tol2bus.snoop_fanout::1                    467      5.18%    100.00% # Request fanout histogram
system.tol2bus.snoop_fanout::2                      0      0.00%    100.00% # Request fanout histogram
system.tol2bus.snoop_fanout::overflows              0      0.00%    100.00% # Request fanout histogram
system.tol2bus.snoop_fanout::min_value              0                       # Request fanout histogram
system.tol2bus.snoop_fanout::max_value              1                       # Request fanout histogram
system.tol2bus.snoop_fanout::total               9016                       # Request fanout histogram
system.tol2bus.power_state.pwrStateResidencyTicks::UNDEFINED  68821830000                       # Cumulative time (in ticks) in various power states
system.tol2bus.reqLayer0.occupancy           10643000                       # Layer occupancy (ticks)
system.tol2bus.reqLayer0.utilization              0.0                       # Layer utilization (%)
system.tol2bus.respLayer0.occupancy           3942998                       # Layer occupancy (ticks)
system.tol2bus.respLayer0.utilization             0.0                       # Layer utilization (%)
system.tol2bus.respLayer1.occupancy           9584495                       # Layer occupancy (ticks)
system.tol2bus.respLayer1.utilization             0.0                       # Layer utilization (%)
system.voltage_domain.voltage                       1                       # Voltage in Volts

---------- End Simulation Statistics   ----------
